7PB
     RDKit          3D

 38 40  0  0  0  0  0  0  0  0999 V2000
    4.5498    2.3337   -1.9791 C   0  0  0  0  0  0  0  0  0  0  0  0
    3.8711    1.1492   -1.4632 N   0  0  0  0  0  0  0  0  0  0  0  0
    4.2356    0.6542   -0.1790 C   0  0  0  0  0  0  0  0  0  0  0  0
    3.6416   -0.5110    0.4508 C   0  0  0  0  0  0  0  0  0  0  0  0
    2.5496   -0.2957    1.2858 C   0  0  0  0  0  0  0  0  0  0  0  0
    1.9298   -1.3903    1.9306 C   0  0  0  0  0  0  0  0  0  0  0  0
    2.4433   -2.6643    1.7031 C   0  0  0  0  0  0  0  0  0  0  0  0
    1.6536   -3.5002    2.4486 N   0  0  0  0  0  0  0  0  0  0  0  0
    0.6857   -2.8783    3.1291 N   0  0  0  0  0  0  0  0  0  0  0  0
    0.8499   -1.5733    2.8140 C   0  0  0  0  0  0  0  0  0  0  0  0
   -0.0629   -0.5421    3.3850 C   0  0  0  0  0  0  0  0  0  0  0  0
   -1.0405   -0.1549    2.3148 C   0  0  0  0  0  0  0  0  0  0  0  0
   -2.0862   -1.0335    1.9552 C   0  0  0  0  0  0  0  0  0  0  0  0
   -2.9922   -0.6664    0.9719 C   0  0  0  0  0  0  0  0  0  0  0  0
   -4.0798   -1.5961    0.6098 C   0  0  0  0  0  0  0  0  0  0  0  0
   -2.9053    0.5599    0.3148 C   0  0  0  0  0  0  0  0  0  0  0  0
   -1.8730    1.4260    0.6710 C   0  0  0  0  0  0  0  0  0  0  0  0
   -0.9547    1.0811    1.6514 C   0  0  0  0  0  0  0  0  0  0  0  0
    3.5393   -2.9122    0.8694 C   0  0  0  0  0  0  0  0  0  0  0  0
    4.1302   -1.7959    0.2442 C   0  0  0  0  0  0  0  0  0  0  0  0
    5.1371    1.2754    0.4492 O   0  0  0  0  0  0  0  0  0  0  0  0
    3.9737    2.8719   -2.7412 H   0  0  0  0  0  0  0  0  0  0  0  0
    5.5322    1.9813   -2.3833 H   0  0  0  0  0  0  0  0  0  0  0  0
    4.8103    2.9720   -1.0922 H   0  0  0  0  0  0  0  0  0  0  0  0
    3.1273    0.6454   -1.9918 H   0  0  0  0  0  0  0  0  0  0  0  0
    2.0944    0.6299    1.5167 H   0  0  0  0  0  0  0  0  0  0  0  0
    1.8315   -4.5249    2.4532 H   0  0  0  0  0  0  0  0  0  0  0  0
   -0.5599   -0.8855    4.2757 H   0  0  0  0  0  0  0  0  0  0  0  0
    0.4926    0.3911    3.6301 H   0  0  0  0  0  0  0  0  0  0  0  0
   -2.1505   -1.9874    2.4683 H   0  0  0  0  0  0  0  0  0  0  0  0
   -4.5465   -1.2775   -0.3687 H   0  0  0  0  0  0  0  0  0  0  0  0
   -4.8947   -1.6312    1.3553 H   0  0  0  0  0  0  0  0  0  0  0  0
   -3.6828   -2.6196    0.4154 H   0  0  0  0  0  0  0  0  0  0  0  0
   -3.6354    0.7807   -0.4328 H   0  0  0  0  0  0  0  0  0  0  0  0
   -1.8136    2.3634    0.1630 H   0  0  0  0  0  0  0  0  0  0  0  0
   -0.1645    1.7649    1.9114 H   0  0  0  0  0  0  0  0  0  0  0  0
    3.8815   -3.9063    0.7396 H   0  0  0  0  0  0  0  0  0  0  0  0
    4.9737   -1.9503   -0.4021 H   0  0  0  0  0  0  0  0  0  0  0  0
  1  2  1  0
  2  3  1  0
  3  4  1  0
  4  5  2  0
  5  6  1  0
  6  7  2  0
  7  8  1  0
  8  9  1  0
  9 10  2  0
 10 11  1  0
 11 12  1  0
 12 13  2  0
 13 14  1  0
 14 15  1  0
 14 16  2  0
 16 17  1  0
 17 18  2  0
  7 19  1  0
 19 20  2  0
  3 21  2  0
 20  4  1  0
 10  6  1  0
 18 12  1  0
  1 22  1  0
  1 23  1  0
  1 24  1  0
  2 25  1  0
  5 26  1  0
  8 27  1  0
 11 28  1  0
 11 29  1  0
 13 30  1  0
 15 31  1  0
 15 32  1  0
 15 33  1  0
 16 34  1  0
 17 35  1  0
 18 36  1  0
 19 37  1  0
 20 38  1  0
M  END
$$$$
7I0
     RDKit          3D

 51 55  0  0  0  0  0  0  0  0999 V2000
   -4.0527   -1.7126    0.6722 C   0  0  0  0  0  0  0  0  0  0  0  0
   -3.0447   -0.7072    1.0267 C   0  0  0  0  0  0  0  0  0  0  0  0
   -3.0000    0.5275    0.4099 C   0  0  0  0  0  0  0  0  0  0  0  0
   -3.9548    0.9111   -0.6090 C   0  0  0  0  0  0  0  0  0  0  0  0
   -5.2571    0.5379   -0.6766 C   0  0  0  0  0  0  0  0  0  0  0  0
   -5.8043    1.1212   -1.7699 N   0  0  0  0  0  0  0  0  0  0  0  0
   -7.1583    0.9921   -2.2405 C   0  0  0  0  0  0  0  0  0  0  0  0
   -4.9380    1.8807   -2.4566 N   0  0  0  0  0  0  0  0  0  0  0  0
   -3.8124    1.7531   -1.7505 C   0  0  0  0  0  0  0  0  0  0  0  0
   -1.9827    1.4213    0.7959 C   0  0  0  0  0  0  0  0  0  0  0  0
   -1.0477    1.0643    1.7760 C   0  0  0  0  0  0  0  0  0  0  0  0
   -1.1010   -0.1843    2.3948 C   0  0  0  0  0  0  0  0  0  0  0  0
   -0.0948   -0.5933    3.4422 C   0  0  0  0  0  0  0  0  0  0  0  0
    0.8278   -1.5806    2.8344 C   0  0  0  0  0  0  0  0  0  0  0  0
    0.6913   -2.9019    3.1095 N   0  0  0  0  0  0  0  0  0  0  0  0
    1.6574   -3.4879    2.3935 N   0  0  0  0  0  0  0  0  0  0  0  0
    2.4238   -2.6206    1.6602 C   0  0  0  0  0  0  0  0  0  0  0  0
    1.8975   -1.3638    1.9357 C   0  0  0  0  0  0  0  0  0  0  0  0
    2.4775   -0.2471    1.2984 C   0  0  0  0  0  0  0  0  0  0  0  0
    3.5468   -0.4121    0.4130 C   0  0  0  0  0  0  0  0  0  0  0  0
    4.1546    0.7703   -0.1868 C   0  0  0  0  0  0  0  0  0  0  0  0
    4.5386    1.8552    0.4319 N   0  0  0  0  0  0  0  0  0  0  0  0
    5.0008    2.7277   -0.5340 C   0  0  0  0  0  0  0  0  0  0  0  0
    4.8960    2.1711   -1.7722 C   0  0  0  0  0  0  0  0  0  0  0  0
    4.3563    0.9322   -1.5550 N   0  0  0  0  0  0  0  0  0  0  0  0
    3.9773    0.0002   -2.6021 C   0  0  0  0  0  0  0  0  0  0  0  0
    4.0449   -1.7138    0.1669 C   0  0  0  0  0  0  0  0  0  0  0  0
    3.4991   -2.8341    0.7809 C   0  0  0  0  0  0  0  0  0  0  0  0
   -2.1222   -1.0799    2.0063 C   0  0  0  0  0  0  0  0  0  0  0  0
   -4.9252   -1.7547    1.3420 H   0  0  0  0  0  0  0  0  0  0  0  0
   -4.2692   -1.7915   -0.4140 H   0  0  0  0  0  0  0  0  0  0  0  0
   -3.6453   -2.7756    0.8429 H   0  0  0  0  0  0  0  0  0  0  0  0
   -5.8340   -0.0856   -0.0293 H   0  0  0  0  0  0  0  0  0  0  0  0
   -7.2786    1.1879   -3.3079 H   0  0  0  0  0  0  0  0  0  0  0  0
   -7.7904    1.6672   -1.5927 H   0  0  0  0  0  0  0  0  0  0  0  0
   -7.4815   -0.0542   -1.9681 H   0  0  0  0  0  0  0  0  0  0  0  0
   -2.8651    2.2359   -2.0026 H   0  0  0  0  0  0  0  0  0  0  0  0
   -1.9252    2.3874    0.3323 H   0  0  0  0  0  0  0  0  0  0  0  0
   -0.2915    1.7630    2.0442 H   0  0  0  0  0  0  0  0  0  0  0  0
   -0.5326   -0.9577    4.3552 H   0  0  0  0  0  0  0  0  0  0  0  0
    0.4520    0.3415    3.6951 H   0  0  0  0  0  0  0  0  0  0  0  0
    1.8092   -4.5280    2.3989 H   0  0  0  0  0  0  0  0  0  0  0  0
    2.0168    0.6664    1.5699 H   0  0  0  0  0  0  0  0  0  0  0  0
    5.3759    3.7034   -0.2324 H   0  0  0  0  0  0  0  0  0  0  0  0
    5.1824    2.6288   -2.6941 H   0  0  0  0  0  0  0  0  0  0  0  0
    3.4044   -0.8333   -2.1612 H   0  0  0  0  0  0  0  0  0  0  0  0
    4.8947   -0.3549   -3.0970 H   0  0  0  0  0  0  0  0  0  0  0  0
    3.2901    0.5166   -3.3259 H   0  0  0  0  0  0  0  0  0  0  0  0
    4.8605   -1.7995   -0.5129 H   0  0  0  0  0  0  0  0  0  0  0  0
    3.8385   -3.8260    0.6297 H   0  0  0  0  0  0  0  0  0  0  0  0
   -2.1767   -2.0375    2.4698 H   0  0  0  0  0  0  0  0  0  0  0  0
  1  2  1  0
  2  3  2  0
  3  4  1  0
  4  5  2  0
  5  6  1  0
  6  7  1  0
  6  8  1  0
  8  9  2  0
  3 10  1  0
 10 11  2  0
 11 12  1  0
 12 13  1  0
 13 14  1  0
 14 15  2  0
 15 16  1  0
 16 17  1  0
 17 18  2  0
 18 19  1  0
 19 20  2  0
 20 21  1  0
 21 22  2  0
 22 23  1  0
 23 24  2  0
 24 25  1  0
 25 26  1  0
 20 27  1  0
 27 28  2  0
 12 29  2  0
 29  2  1  0
  9  4  1  0
 18 14  1  0
 28 17  1  0
 25 21  1  0
  1 30  1  0
  1 31  1  0
  1 32  1  0
  5 33  1  0
  7 34  1  0
  7 35  1  0
  7 36  1  0
  9 37  1  0
 10 38  1  0
 11 39  1  0
 13 40  1  0
 13 41  1  0
 16 42  1  0
 19 43  1  0
 23 44  1  0
 24 45  1  0
 26 46  1  0
 26 47  1  0
 26 48  1  0
 27 49  1  0
 28 50  1  0
 29 51  1  0
M  END
$$$$
7PA
     RDKit          3D

 48 52  0  0  0  0  0  0  0  0999 V2000
   -7.1417    0.9433   -2.2893 C   0  0  0  0  0  0  0  0  0  0  0  0
   -5.7966    1.0930   -1.7906 N   0  0  0  0  0  0  0  0  0  0  0  0
   -5.2492    0.4732   -0.7047 C   0  0  0  0  0  0  0  0  0  0  0  0
   -3.9490    0.9270   -0.6111 C   0  0  0  0  0  0  0  0  0  0  0  0
   -3.8261    1.8243   -1.6986 C   0  0  0  0  0  0  0  0  0  0  0  0
   -4.9468    1.9240   -2.4192 N   0  0  0  0  0  0  0  0  0  0  0  0
   -2.9937    0.5402    0.4136 C   0  0  0  0  0  0  0  0  0  0  0  0
   -3.0557   -0.7166    1.0283 C   0  0  0  0  0  0  0  0  0  0  0  0
   -2.1239   -1.0799    2.0060 C   0  0  0  0  0  0  0  0  0  0  0  0
   -1.1047   -0.1964    2.3887 C   0  0  0  0  0  0  0  0  0  0  0  0
   -1.0469    1.0635    1.7782 C   0  0  0  0  0  0  0  0  0  0  0  0
   -1.9787    1.4253    0.7992 C   0  0  0  0  0  0  0  0  0  0  0  0
   -0.0974   -0.5880    3.4460 C   0  0  0  0  0  0  0  0  0  0  0  0
    0.8145   -1.5936    2.8210 C   0  0  0  0  0  0  0  0  0  0  0  0
    0.6884   -2.8987    3.1153 N   0  0  0  0  0  0  0  0  0  0  0  0
    1.6597   -3.4859    2.3974 N   0  0  0  0  0  0  0  0  0  0  0  0
    2.4197   -2.6202    1.6595 C   0  0  0  0  0  0  0  0  0  0  0  0
    1.8946   -1.3612    1.9214 C   0  0  0  0  0  0  0  0  0  0  0  0
    2.4804   -0.2394    1.3065 C   0  0  0  0  0  0  0  0  0  0  0  0
    3.5621   -0.4164    0.4273 C   0  0  0  0  0  0  0  0  0  0  0  0
    4.0723   -1.7024    0.2027 C   0  0  0  0  0  0  0  0  0  0  0  0
    3.5096   -2.8322    0.8109 C   0  0  0  0  0  0  0  0  0  0  0  0
    4.1493    0.7619   -0.2133 C   0  0  0  0  0  0  0  0  0  0  0  0
    4.5307    1.8548    0.4265 N   0  0  0  0  0  0  0  0  0  0  0  0
    5.0193    2.7090   -0.5249 C   0  0  0  0  0  0  0  0  0  0  0  0
    4.9126    2.1529   -1.7747 C   0  0  0  0  0  0  0  0  0  0  0  0
    4.3387    0.9271   -1.5705 N   0  0  0  0  0  0  0  0  0  0  0  0
    3.9422    0.0190   -2.6196 C   0  0  0  0  0  0  0  0  0  0  0  0
   -7.6346    1.9177   -2.2488 H   0  0  0  0  0  0  0  0  0  0  0  0
   -7.6826    0.2251   -1.6684 H   0  0  0  0  0  0  0  0  0  0  0  0
   -7.0894    0.5807   -3.3189 H   0  0  0  0  0  0  0  0  0  0  0  0
   -5.8234   -0.2123   -0.0977 H   0  0  0  0  0  0  0  0  0  0  0  0
   -2.9636    2.4052   -1.9980 H   0  0  0  0  0  0  0  0  0  0  0  0
   -3.8178   -1.4382    0.7458 H   0  0  0  0  0  0  0  0  0  0  0  0
   -2.1875   -2.0669    2.4622 H   0  0  0  0  0  0  0  0  0  0  0  0
   -0.2750    1.7773    2.0584 H   0  0  0  0  0  0  0  0  0  0  0  0
   -1.9045    2.4145    0.3537 H   0  0  0  0  0  0  0  0  0  0  0  0
   -0.6160   -0.9986    4.3203 H   0  0  0  0  0  0  0  0  0  0  0  0
    0.4729    0.2820    3.7913 H   0  0  0  0  0  0  0  0  0  0  0  0
    1.7576   -4.4922    2.4592 H   0  0  0  0  0  0  0  0  0  0  0  0
    2.1004    0.7596    1.5022 H   0  0  0  0  0  0  0  0  0  0  0  0
    4.9405   -1.8385   -0.4389 H   0  0  0  0  0  0  0  0  0  0  0  0
    3.9148   -3.8232    0.6353 H   0  0  0  0  0  0  0  0  0  0  0  0
    5.4144    3.6807   -0.2591 H   0  0  0  0  0  0  0  0  0  0  0  0
    5.1737    2.5226   -2.7562 H   0  0  0  0  0  0  0  0  0  0  0  0
    4.6828   -0.7816   -2.6813 H   0  0  0  0  0  0  0  0  0  0  0  0
    3.9033    0.5596   -3.5693 H   0  0  0  0  0  0  0  0  0  0  0  0
    2.9504   -0.3810   -2.3952 H   0  0  0  0  0  0  0  0  0  0  0  0
  1  2  1  0
  2  3  1  0
  3  4  2  0
  4  5  1  0
  5  6  2  0
  4  7  1  0
  7  8  2  0
  8  9  1  0
  9 10  2  0
 10 11  1  0
 11 12  2  0
 10 13  1  0
 13 14  1  0
 14 15  2  0
 15 16  1  0
 16 17  1  0
 17 18  2  0
 18 19  1  0
 19 20  2  0
 20 21  1  0
 21 22  2  0
 20 23  1  0
 23 24  2  0
 24 25  1  0
 25 26  2  0
 26 27  1  0
 27 28  1  0
  6  2  1  0
 12  7  1  0
 18 14  1  0
 22 17  1  0
 27 23  1  0
  1 29  1  0
  1 30  1  0
  1 31  1  0
  3 32  1  0
  5 33  1  0
  8 34  1  0
  9 35  1  0
 11 36  1  0
 12 37  1  0
 13 38  1  0
 13 39  1  0
 16 40  1  0
 19 41  1  0
 21 42  1  0
 22 43  1  0
 25 44  1  0
 26 45  1  0
 28 46  1  0
 28 47  1  0
 28 48  1  0
M  END
$$$$
