5PB
     RDKit          3D

 43 45  0  0  0  0  0  0  0  0999 V2000
    1.7823    0.7390    0.0578 C   0  0  0  0  0  0  0  0  0  0  0  0
    2.1873    1.2773   -1.2752 C   0  0  0  0  0  0  0  0  0  0  0  0
    3.3283    0.3875   -1.7759 C   0  0  0  0  0  0  0  0  0  0  0  0
    1.1110    1.3396   -2.3000 C   0  0  0  0  0  0  0  0  0  0  0  0
    0.5653   -0.0154   -2.5661 C   0  0  0  0  0  0  0  0  0  0  0  0
    1.0407   -0.7495   -3.5982 N   0  0  0  0  0  0  0  0  0  0  0  0
    0.3744   -1.9051   -3.5207 N   0  0  0  0  0  0  0  0  0  0  0  0
   -0.5191   -1.9728   -2.4887 C   0  0  0  0  0  0  0  0  0  0  0  0
   -0.4128   -0.7531   -1.8539 C   0  0  0  0  0  0  0  0  0  0  0  0
   -1.2323   -0.4997   -0.7239 C   0  0  0  0  0  0  0  0  0  0  0  0
   -2.1106   -1.4653   -0.2828 C   0  0  0  0  0  0  0  0  0  0  0  0
   -2.1840   -2.7102   -0.9657 C   0  0  0  0  0  0  0  0  0  0  0  0
   -1.3910   -2.9722   -2.0717 C   0  0  0  0  0  0  0  0  0  0  0  0
   -3.0662   -1.2276    0.7919 C   0  0  0  0  0  0  0  0  0  0  0  0
   -3.5599   -0.0119    1.1489 N   0  0  0  0  0  0  0  0  0  0  0  0
   -4.4748   -0.0432    2.3356 C   0  0  0  0  0  0  0  0  0  0  0  0
   -5.6182    0.8930    2.2141 C   0  0  0  0  0  0  0  0  0  0  0  0
   -5.9162    1.0852    0.8090 N   0  0  0  0  0  0  0  0  0  0  0  0
   -4.8597    1.8251    0.1817 C   0  0  0  0  0  0  0  0  0  0  0  0
   -3.4684    1.3094    0.6435 C   0  0  0  0  0  0  0  0  0  0  0  0
   -3.4404   -2.2569    1.4057 O   0  0  0  0  0  0  0  0  0  0  0  0
    0.9847    1.3491    0.5409 H   0  0  0  0  0  0  0  0  0  0  0  0
    1.5481   -0.3237   -0.0422 H   0  0  0  0  0  0  0  0  0  0  0  0
    2.7116    0.7619    0.7120 H   0  0  0  0  0  0  0  0  0  0  0  0
    2.6283    2.2934   -1.0824 H   0  0  0  0  0  0  0  0  0  0  0  0
    3.0291   -0.6754   -1.6356 H   0  0  0  0  0  0  0  0  0  0  0  0
    4.1768    0.5542   -1.0803 H   0  0  0  0  0  0  0  0  0  0  0  0
    3.5985    0.6158   -2.8145 H   0  0  0  0  0  0  0  0  0  0  0  0
    0.2466    1.9531   -1.8979 H   0  0  0  0  0  0  0  0  0  0  0  0
    1.4287    1.7976   -3.2324 H   0  0  0  0  0  0  0  0  0  0  0  0
    0.5022   -2.7067   -4.1761 H   0  0  0  0  0  0  0  0  0  0  0  0
   -1.0421    0.4478   -0.3004 H   0  0  0  0  0  0  0  0  0  0  0  0
   -2.8680   -3.4209   -0.5903 H   0  0  0  0  0  0  0  0  0  0  0  0
   -1.4260   -3.8841   -2.5979 H   0  0  0  0  0  0  0  0  0  0  0  0
   -3.8602    0.1249    3.2523 H   0  0  0  0  0  0  0  0  0  0  0  0
   -4.8828   -1.0695    2.4015 H   0  0  0  0  0  0  0  0  0  0  0  0
   -5.4434    1.8847    2.6818 H   0  0  0  0  0  0  0  0  0  0  0  0
   -6.5176    0.4401    2.6791 H   0  0  0  0  0  0  0  0  0  0  0  0
   -6.0592    0.1474    0.3707 H   0  0  0  0  0  0  0  0  0  0  0  0
   -4.9258    2.8908    0.4554 H   0  0  0  0  0  0  0  0  0  0  0  0
   -4.9436    1.7422   -0.9161 H   0  0  0  0  0  0  0  0  0  0  0  0
   -2.8234    1.5591   -0.1655 H   0  0  0  0  0  0  0  0  0  0  0  0
   -3.1824    1.9814    1.5051 H   0  0  0  0  0  0  0  0  0  0  0  0
  1  2  1  0
  2  3  1  0
  2  4  1  0
  4  5  1  0
  5  6  2  0
  6  7  1  0
  7  8  1  0
  8  9  2  0
  9 10  1  0
 10 11  2  0
 11 12  1  0
 12 13  2  0
 11 14  1  0
 14 15  1  0
 15 16  1  0
 16 17  1  0
 17 18  1  0
 18 19  1  0
 19 20  1  0
 14 21  2  0
  9  5  1  0
 13  8  1  0
 20 15  1  0
  1 22  1  0
  1 23  1  0
  1 24  1  0
  2 25  1  0
  3 26  1  0
  3 27  1  0
  3 28  1  0
  4 29  1  0
  4 30  1  0
  7 31  1  0
 10 32  1  0
 12 33  1  0
 13 34  1  0
 16 35  1  0
 16 36  1  0
 17 37  1  0
 17 38  1  0
 18 39  1  0
 19 40  1  0
 19 41  1  0
 20 42  1  0
 20 43  1  0
M  END
$$$$
5I0
     RDKit          3D

 41 43  0  0  0  0  0  0  0  0999 V2000
    3.5232    0.2450   -1.5723 C   0  0  0  0  0  0  0  0  0  0  0  0
    2.3821    1.1569   -1.2086 C   0  0  0  0  0  0  0  0  0  0  0  0
    1.3120    1.2221   -2.2368 C   0  0  0  0  0  0  0  0  0  0  0  0
    0.6447   -0.0581   -2.5582 C   0  0  0  0  0  0  0  0  0  0  0  0
    1.0186   -0.7727   -3.6423 N   0  0  0  0  0  0  0  0  0  0  0  0
    0.2579   -1.8649   -3.5997 N   0  0  0  0  0  0  0  0  0  0  0  0
   -0.6071   -1.9167   -2.5400 C   0  0  0  0  0  0  0  0  0  0  0  0
   -0.3777   -0.7416   -1.8385 C   0  0  0  0  0  0  0  0  0  0  0  0
   -1.1248   -0.5205   -0.6639 C   0  0  0  0  0  0  0  0  0  0  0  0
   -2.0446   -1.4559   -0.2359 C   0  0  0  0  0  0  0  0  0  0  0  0
   -2.9223   -1.2532    0.9213 C   0  0  0  0  0  0  0  0  0  0  0  0
   -3.6264   -0.1009    1.0894 N   0  0  0  0  0  0  0  0  0  0  0  0
   -4.4297    0.1390    2.2688 C   0  0  0  0  0  0  0  0  0  0  0  0
   -4.9177    1.5628    2.1451 C   0  0  0  0  0  0  0  0  0  0  0  0
   -5.0425    1.7238    0.6360 C   0  0  0  0  0  0  0  0  0  0  0  0
   -5.0020    3.0212    0.2643 F   0  0  0  0  0  0  0  0  0  0  0  0
   -3.8141    0.9759    0.1181 C   0  0  0  0  0  0  0  0  0  0  0  0
   -6.2014    1.2138    0.1992 F   0  0  0  0  0  0  0  0  0  0  0  0
   -3.0006   -2.1933    1.7379 O   0  0  0  0  0  0  0  0  0  0  0  0
   -2.2414   -2.6379   -0.9801 C   0  0  0  0  0  0  0  0  0  0  0  0
   -1.5252   -2.8740   -2.1366 C   0  0  0  0  0  0  0  0  0  0  0  0
    1.8806    0.9390    0.1994 C   0  0  0  0  0  0  0  0  0  0  0  0
    4.5002    0.7224   -1.3538 H   0  0  0  0  0  0  0  0  0  0  0  0
    3.5132   -0.7038   -0.9774 H   0  0  0  0  0  0  0  0  0  0  0  0
    3.5055    0.0371   -2.6620 H   0  0  0  0  0  0  0  0  0  0  0  0
    2.8358    2.1987   -1.1842 H   0  0  0  0  0  0  0  0  0  0  0  0
    0.5060    1.8935   -1.8142 H   0  0  0  0  0  0  0  0  0  0  0  0
    1.6290    1.7252   -3.1649 H   0  0  0  0  0  0  0  0  0  0  0  0
    0.3001   -2.6430   -4.3147 H   0  0  0  0  0  0  0  0  0  0  0  0
   -0.9036    0.3976   -0.1914 H   0  0  0  0  0  0  0  0  0  0  0  0
   -3.8996   -0.0702    3.2064 H   0  0  0  0  0  0  0  0  0  0  0  0
   -5.3530   -0.5051    2.1741 H   0  0  0  0  0  0  0  0  0  0  0  0
   -4.1173    2.2217    2.5470 H   0  0  0  0  0  0  0  0  0  0  0  0
   -5.8758    1.7370    2.6672 H   0  0  0  0  0  0  0  0  0  0  0  0
   -4.0470    0.5082   -0.8440 H   0  0  0  0  0  0  0  0  0  0  0  0
   -2.9631    1.6674    0.0997 H   0  0  0  0  0  0  0  0  0  0  0  0
   -2.9641   -3.3312   -0.6087 H   0  0  0  0  0  0  0  0  0  0  0  0
   -1.6556   -3.7543   -2.7149 H   0  0  0  0  0  0  0  0  0  0  0  0
    1.0493    1.6776    0.3490 H   0  0  0  0  0  0  0  0  0  0  0  0
    2.6557    1.2412    0.9431 H   0  0  0  0  0  0  0  0  0  0  0  0
    1.5519   -0.0940    0.3415 H   0  0  0  0  0  0  0  0  0  0  0  0
  1  2  1  0
  2  3  1  0
  3  4  1  0
  4  5  2  0
  5  6  1  0
  6  7  1  0
  7  8  2  0
  8  9  1  0
  9 10  2  0
 10 11  1  0
 11 12  1  0
 12 13  1  0
 13 14  1  0
 14 15  1  0
 15 16  1  0
 15 17  1  0
 15 18  1  0
 11 19  2  0
 10 20  1  0
 20 21  2  0
  2 22  1  0
  8  4  1  0
 21  7  1  0
 17 12  1  0
  1 23  1  0
  1 24  1  0
  1 25  1  0
  2 26  1  0
  3 27  1  0
  3 28  1  0
  6 29  1  0
  9 30  1  0
 13 31  1  0
 13 32  1  0
 14 33  1  0
 14 34  1  0
 17 35  1  0
 17 36  1  0
 20 37  1  0
 21 38  1  0
 22 39  1  0
 22 40  1  0
 22 41  1  0
M  END
$$$$
5I1
     RDKit          3D

 50 54  0  0  0  0  0  0  0  0999 V2000
    5.4279    0.0336    3.0818 C   0  0  0  0  0  0  0  0  0  0  0  0
    5.2319   -0.1546    1.6654 N   0  0  0  0  0  0  0  0  0  0  0  0
    6.1562   -0.8200    0.9493 N   0  0  0  0  0  0  0  0  0  0  0  0
    5.6576   -0.8056   -0.2932 C   0  0  0  0  0  0  0  0  0  0  0  0
    4.4201   -0.1347   -0.3762 C   0  0  0  0  0  0  0  0  0  0  0  0
    4.1602    0.2848    0.9242 C   0  0  0  0  0  0  0  0  0  0  0  0
    3.0089    0.9945    1.2633 C   0  0  0  0  0  0  0  0  0  0  0  0
    2.0985    1.2795    0.2302 C   0  0  0  0  0  0  0  0  0  0  0  0
    2.3162    0.8798   -1.0864 C   0  0  0  0  0  0  0  0  0  0  0  0
    1.3187    1.1773   -2.1819 C   0  0  0  0  0  0  0  0  0  0  0  0
    0.6248   -0.0799   -2.5378 C   0  0  0  0  0  0  0  0  0  0  0  0
    0.9837   -0.7720   -3.6478 N   0  0  0  0  0  0  0  0  0  0  0  0
    0.1985   -1.8493   -3.6386 N   0  0  0  0  0  0  0  0  0  0  0  0
   -0.6650   -1.9139   -2.5833 C   0  0  0  0  0  0  0  0  0  0  0  0
   -0.4057   -0.7567   -1.8433 C   0  0  0  0  0  0  0  0  0  0  0  0
   -1.1402   -0.5458   -0.6681 C   0  0  0  0  0  0  0  0  0  0  0  0
   -2.0978   -1.4890   -0.2648 C   0  0  0  0  0  0  0  0  0  0  0  0
   -2.9205   -1.2549    0.9265 C   0  0  0  0  0  0  0  0  0  0  0  0
   -3.5581   -0.0780    1.1728 N   0  0  0  0  0  0  0  0  0  0  0  0
   -4.3647    0.0878    2.3909 C   0  0  0  0  0  0  0  0  0  0  0  0
   -5.5394    0.9872    2.1405 C   0  0  0  0  0  0  0  0  0  0  0  0
   -5.8883    1.0689    0.7565 N   0  0  0  0  0  0  0  0  0  0  0  0
   -4.8141    1.7449    0.0750 C   0  0  0  0  0  0  0  0  0  0  0  0
   -3.4865    1.0400    0.2655 C   0  0  0  0  0  0  0  0  0  0  0  0
   -3.0100   -2.2241    1.7100 O   0  0  0  0  0  0  0  0  0  0  0  0
   -2.3257   -2.6444   -1.0388 C   0  0  0  0  0  0  0  0  0  0  0  0
   -1.6165   -2.8743   -2.2075 C   0  0  0  0  0  0  0  0  0  0  0  0
    3.4956    0.1615   -1.3952 C   0  0  0  0  0  0  0  0  0  0  0  0
    5.8597   -0.8677    3.5247 H   0  0  0  0  0  0  0  0  0  0  0  0
    5.9967    0.9579    3.3257 H   0  0  0  0  0  0  0  0  0  0  0  0
    4.4180    0.1693    3.5633 H   0  0  0  0  0  0  0  0  0  0  0  0
    6.1041   -1.2411   -1.1770 H   0  0  0  0  0  0  0  0  0  0  0  0
    2.8477    1.2984    2.2742 H   0  0  0  0  0  0  0  0  0  0  0  0
    1.1883    1.8327    0.4612 H   0  0  0  0  0  0  0  0  0  0  0  0
    0.5914    1.8816   -1.7294 H   0  0  0  0  0  0  0  0  0  0  0  0
    1.7456    1.6613   -3.0434 H   0  0  0  0  0  0  0  0  0  0  0  0
    0.2440   -2.5919   -4.3911 H   0  0  0  0  0  0  0  0  0  0  0  0
   -0.8955    0.3474   -0.1609 H   0  0  0  0  0  0  0  0  0  0  0  0
   -4.7034   -0.9271    2.7215 H   0  0  0  0  0  0  0  0  0  0  0  0
   -3.7159    0.5503    3.1625 H   0  0  0  0  0  0  0  0  0  0  0  0
   -6.4037    0.6786    2.7665 H   0  0  0  0  0  0  0  0  0  0  0  0
   -5.2591    2.0328    2.4621 H   0  0  0  0  0  0  0  0  0  0  0  0
   -6.2051    0.1999    0.3206 H   0  0  0  0  0  0  0  0  0  0  0  0
   -4.7084    2.7446    0.5491 H   0  0  0  0  0  0  0  0  0  0  0  0
   -5.0810    1.9112   -0.9744 H   0  0  0  0  0  0  0  0  0  0  0  0
   -3.2296    0.6474   -0.7574 H   0  0  0  0  0  0  0  0  0  0  0  0
   -2.6861    1.7299    0.5671 H   0  0  0  0  0  0  0  0  0  0  0  0
   -3.0552   -3.3727   -0.7393 H   0  0  0  0  0  0  0  0  0  0  0  0
   -1.7315   -3.7203   -2.8474 H   0  0  0  0  0  0  0  0  0  0  0  0
    3.7169   -0.1673   -2.3720 H   0  0  0  0  0  0  0  0  0  0  0  0
  1  2  1  0
  2  3  1  0
  3  4  2  0
  4  5  1  0
  5  6  2  0
  6  7  1  0
  7  8  2  0
  8  9  1  0
  9 10  1  0
 10 11  1  0
 11 12  2  0
 12 13  1  0
 13 14  1  0
 14 15  2  0
 15 16  1  0
 16 17  2  0
 17 18  1  0
 18 19  1  0
 19 20  1  0
 20 21  1  0
 21 22  1  0
 22 23  1  0
 23 24  1  0
 18 25  2  0
 17 26  1  0
 26 27  2  0
  9 28  2  0
  6  2  1  0
 28  5  1  0
 15 11  1  0
 27 14  1  0
 24 19  1  0
  1 29  1  0
  1 30  1  0
  1 31  1  0
  4 32  1  0
  7 33  1  0
  8 34  1  0
 10 35  1  0
 10 36  1  0
 13 37  1  0
 16 38  1  0
 20 39  1  0
 20 40  1  0
 21 41  1  0
 21 42  1  0
 22 43  1  0
 23 44  1  0
 23 45  1  0
 24 46  1  0
 24 47  1  0
 26 48  1  0
 27 49  1  0
 28 50  1  0
M  END
$$$$
5PA
     RDKit          3D

 48 52  0  0  0  0  0  0  0  0999 V2000
    5.4660    0.0353    3.0761 C   0  0  0  0  0  0  0  0  0  0  0  0
    5.2682   -0.1600    1.6599 N   0  0  0  0  0  0  0  0  0  0  0  0
    6.1889   -0.8419    0.9490 N   0  0  0  0  0  0  0  0  0  0  0  0
    5.6884   -0.8389   -0.2889 C   0  0  0  0  0  0  0  0  0  0  0  0
    4.4552   -0.1576   -0.3788 C   0  0  0  0  0  0  0  0  0  0  0  0
    4.1998    0.2809    0.9164 C   0  0  0  0  0  0  0  0  0  0  0  0
    3.0511    1.0092    1.2498 C   0  0  0  0  0  0  0  0  0  0  0  0
    2.1436    1.2898    0.2205 C   0  0  0  0  0  0  0  0  0  0  0  0
    2.3632    0.8565   -1.0963 C   0  0  0  0  0  0  0  0  0  0  0  0
    1.3631    1.1766   -2.1857 C   0  0  0  0  0  0  0  0  0  0  0  0
    0.6777   -0.1060   -2.5319 C   0  0  0  0  0  0  0  0  0  0  0  0
    1.0066   -0.7639   -3.6555 N   0  0  0  0  0  0  0  0  0  0  0  0
    0.2198   -1.8517   -3.6369 N   0  0  0  0  0  0  0  0  0  0  0  0
   -0.6409   -1.9068   -2.5742 C   0  0  0  0  0  0  0  0  0  0  0  0
   -0.3705   -0.7660   -1.8263 C   0  0  0  0  0  0  0  0  0  0  0  0
   -1.1033   -0.5334   -0.6479 C   0  0  0  0  0  0  0  0  0  0  0  0
   -2.0932   -1.4581   -0.2812 C   0  0  0  0  0  0  0  0  0  0  0  0
   -2.3256   -2.6101   -1.0390 C   0  0  0  0  0  0  0  0  0  0  0  0
   -1.6041   -2.8543   -2.2117 C   0  0  0  0  0  0  0  0  0  0  0  0
   -2.8836   -1.2569    0.9541 C   0  0  0  0  0  0  0  0  0  0  0  0
   -3.5646   -0.0640    1.1108 N   0  0  0  0  0  0  0  0  0  0  0  0
   -4.4165    0.1446    2.2697 C   0  0  0  0  0  0  0  0  0  0  0  0
   -4.9103    1.5737    2.1290 C   0  0  0  0  0  0  0  0  0  0  0  0
   -5.0538    1.7118    0.6267 C   0  0  0  0  0  0  0  0  0  0  0  0
   -5.0159    3.0024    0.2426 F   0  0  0  0  0  0  0  0  0  0  0  0
   -3.8893    0.9053    0.0607 C   0  0  0  0  0  0  0  0  0  0  0  0
   -6.2359    1.1937    0.2199 F   0  0  0  0  0  0  0  0  0  0  0  0
   -2.9182   -2.1596    1.7849 O   0  0  0  0  0  0  0  0  0  0  0  0
    3.5339    0.1326   -1.4002 C   0  0  0  0  0  0  0  0  0  0  0  0
    5.3847    1.1028    3.2952 H   0  0  0  0  0  0  0  0  0  0  0  0
    4.6972   -0.5284    3.6102 H   0  0  0  0  0  0  0  0  0  0  0  0
    6.4584   -0.3242    3.3605 H   0  0  0  0  0  0  0  0  0  0  0  0
    6.2391   -1.3325   -1.0786 H   0  0  0  0  0  0  0  0  0  0  0  0
    2.8635    1.3468    2.2638 H   0  0  0  0  0  0  0  0  0  0  0  0
    1.2490    1.8599    0.4640 H   0  0  0  0  0  0  0  0  0  0  0  0
    1.8807    1.6072   -3.0510 H   0  0  0  0  0  0  0  0  0  0  0  0
    0.6321    1.9198   -1.8470 H   0  0  0  0  0  0  0  0  0  0  0  0
    0.3140   -2.5241   -4.3893 H   0  0  0  0  0  0  0  0  0  0  0  0
   -0.8934    0.3300   -0.0261 H   0  0  0  0  0  0  0  0  0  0  0  0
   -3.0754   -3.3286   -0.7114 H   0  0  0  0  0  0  0  0  0  0  0  0
   -1.7834   -3.7463   -2.8035 H   0  0  0  0  0  0  0  0  0  0  0  0
   -5.2447   -0.5719    2.2185 H   0  0  0  0  0  0  0  0  0  0  0  0
   -3.8581   -0.0269    3.1948 H   0  0  0  0  0  0  0  0  0  0  0  0
   -4.1632    2.2822    2.5047 H   0  0  0  0  0  0  0  0  0  0  0  0
   -5.8490    1.7384    2.6647 H   0  0  0  0  0  0  0  0  0  0  0  0
   -4.1567    0.3868   -0.8645 H   0  0  0  0  0  0  0  0  0  0  0  0
   -3.0147    1.5409   -0.1049 H   0  0  0  0  0  0  0  0  0  0  0  0
    3.7201   -0.2106   -2.4156 H   0  0  0  0  0  0  0  0  0  0  0  0
  1  2  1  0
  2  3  1  0
  3  4  2  0
  4  5  1  0
  5  6  2  0
  6  7  1  0
  7  8  2  0
  8  9  1  0
  9 10  1  0
 10 11  1  0
 11 12  2  0
 12 13  1  0
 13 14  1  0
 14 15  2  0
 15 16  1  0
 16 17  2  0
 17 18  1  0
 18 19  2  0
 17 20  1  0
 20 21  1  0
 21 22  1  0
 22 23  1  0
 23 24  1  0
 24 25  1  0
 24 26  1  0
 24 27  1  0
 20 28  2  0
  9 29  2  0
  6  2  1  0
 29  5  1  0
 15 11  1  0
 19 14  1  0
 26 21  1  0
  1 30  1  0
  1 31  1  0
  1 32  1  0
  4 33  1  0
  7 34  1  0
  8 35  1  0
 10 36  1  0
 10 37  1  0
 13 38  1  0
 16 39  1  0
 18 40  1  0
 19 41  1  0
 22 42  1  0
 22 43  1  0
 23 44  1  0
 23 45  1  0
 26 46  1  0
 26 47  1  0
 29 48  1  0
M  END
$$$$
