3PB
     RDKit          3D

 59 63  0  0  0  0  0  0  0  0999 V2000
    2.3737    2.6162   -0.9778 O   0  0  0  0  0  0  0  0  0  0  0  0
    2.9802    1.9709   -1.8628 C   0  0  0  0  0  0  0  0  0  0  0  0
    3.7900    2.6774   -2.9140 C   0  0  0  0  0  0  0  0  0  0  0  0
    4.1064    1.6208   -3.9207 C   0  0  0  0  0  0  0  0  0  0  0  0
    3.6292    0.3044   -3.3918 C   0  0  0  0  0  0  0  0  0  0  0  0
    3.0515    0.5776   -2.0743 N   0  0  0  0  0  0  0  0  0  0  0  0
    2.6381   -0.4354   -1.1869 C   0  0  0  0  0  0  0  0  0  0  0  0
    3.1309   -1.7486   -1.2823 C   0  0  0  0  0  0  0  0  0  0  0  0
    2.7190   -2.7517   -0.3937 C   0  0  0  0  0  0  0  0  0  0  0  0
    1.7118   -0.1046   -0.1866 C   0  0  0  0  0  0  0  0  0  0  0  0
    1.2806   -1.0978    0.7217 C   0  0  0  0  0  0  0  0  0  0  0  0
    1.7956   -2.3881    0.5919 C   0  0  0  0  0  0  0  0  0  0  0  0
    1.2015   -3.1097    1.5890 N   0  0  0  0  0  0  0  0  0  0  0  0
    0.3507   -2.4005    2.3475 N   0  0  0  0  0  0  0  0  0  0  0  0
    0.3926   -1.1567    1.8189 C   0  0  0  0  0  0  0  0  0  0  0  0
   -0.4278   -0.0544    2.3964 C   0  0  0  0  0  0  0  0  0  0  0  0
   -1.5677    0.2229    1.4587 C   0  0  0  0  0  0  0  0  0  0  0  0
   -1.6400    1.4230    0.7312 C   0  0  0  0  0  0  0  0  0  0  0  0
   -2.6933    1.6837   -0.1613 C   0  0  0  0  0  0  0  0  0  0  0  0
   -3.6837    0.7310   -0.3262 C   0  0  0  0  0  0  0  0  0  0  0  0
   -4.7957    0.9694   -1.2209 C   0  0  0  0  0  0  0  0  0  0  0  0
   -5.4338    2.1623   -1.5327 C   0  0  0  0  0  0  0  0  0  0  0  0
   -6.4184    1.9421   -2.4071 N   0  0  0  0  0  0  0  0  0  0  0  0
   -7.3086    2.9724   -2.9288 C   0  0  0  0  0  0  0  0  0  0  0  0
   -8.5340    3.0849   -2.0375 C   0  0  0  0  0  0  0  0  0  0  0  0
   -9.2835    1.7550   -1.9879 C   0  0  0  0  0  0  0  0  0  0  0  0
   -8.1837    3.3871   -0.7308 O   0  0  0  0  0  0  0  0  0  0  0  0
   -9.4501    4.1442   -2.5759 C   0  0  0  0  0  0  0  0  0  0  0  0
   -6.4262    0.6460   -2.6623 N   0  0  0  0  0  0  0  0  0  0  0  0
   -5.4554    0.0129   -1.9624 C   0  0  0  0  0  0  0  0  0  0  0  0
   -3.6423   -0.4670    0.3767 C   0  0  0  0  0  0  0  0  0  0  0  0
   -2.5902   -0.7254    1.2675 C   0  0  0  0  0  0  0  0  0  0  0  0
    4.6806    3.0848   -2.4033 H   0  0  0  0  0  0  0  0  0  0  0  0
    3.1920    3.4933   -3.4043 H   0  0  0  0  0  0  0  0  0  0  0  0
    3.6288    1.8512   -4.9154 H   0  0  0  0  0  0  0  0  0  0  0  0
    5.1954    1.6509   -4.0947 H   0  0  0  0  0  0  0  0  0  0  0  0
    2.8922   -0.1923   -4.0619 H   0  0  0  0  0  0  0  0  0  0  0  0
    4.5123   -0.3568   -3.2691 H   0  0  0  0  0  0  0  0  0  0  0  0
    3.8355   -1.9951   -2.0472 H   0  0  0  0  0  0  0  0  0  0  0  0
    3.0798   -3.7521   -0.4473 H   0  0  0  0  0  0  0  0  0  0  0  0
    1.2723    0.8327   -0.0141 H   0  0  0  0  0  0  0  0  0  0  0  0
    1.3683   -4.1200    1.7739 H   0  0  0  0  0  0  0  0  0  0  0  0
   -0.7072   -0.2556    3.4130 H   0  0  0  0  0  0  0  0  0  0  0  0
    0.2022    0.8570    2.3915 H   0  0  0  0  0  0  0  0  0  0  0  0
   -0.8626    2.1764    0.8515 H   0  0  0  0  0  0  0  0  0  0  0  0
   -2.7206    2.6205   -0.7081 H   0  0  0  0  0  0  0  0  0  0  0  0
   -5.1177    3.0979   -1.0843 H   0  0  0  0  0  0  0  0  0  0  0  0
   -6.7826    3.9490   -2.9019 H   0  0  0  0  0  0  0  0  0  0  0  0
   -7.6305    2.7800   -3.9701 H   0  0  0  0  0  0  0  0  0  0  0  0
   -8.9326    1.1614   -1.1111 H   0  0  0  0  0  0  0  0  0  0  0  0
  -10.3485    1.9904   -1.7868 H   0  0  0  0  0  0  0  0  0  0  0  0
   -9.1624    1.2079   -2.9380 H   0  0  0  0  0  0  0  0  0  0  0  0
   -7.9944    4.3377   -0.5848 H   0  0  0  0  0  0  0  0  0  0  0  0
  -10.1361    3.6814   -3.3355 H   0  0  0  0  0  0  0  0  0  0  0  0
   -8.9436    5.0303   -2.9523 H   0  0  0  0  0  0  0  0  0  0  0  0
  -10.1637    4.5101   -1.7757 H   0  0  0  0  0  0  0  0  0  0  0  0
   -5.1974   -1.0435   -1.9443 H   0  0  0  0  0  0  0  0  0  0  0  0
   -4.3991   -1.2320    0.2676 H   0  0  0  0  0  0  0  0  0  0  0  0
   -2.5438   -1.6343    1.8175 H   0  0  0  0  0  0  0  0  0  0  0  0
  1  2  2  0
  2  3  1  0
  3  4  1  0
  4  5  1  0
  2  6  1  0
  6  7  1  0
  7  8  2  0
  8  9  1  0
  7 10  1  0
 10 11  2  0
 11 12  1  0
 12 13  1  0
 13 14  1  0
 14 15  2  0
 15 16  1  0
 16 17  1  0
 17 18  2  0
 18 19  1  0
 19 20  2  0
 20 21  1  0
 21 22  2  0
 22 23  1  0
 23 24  1  0
 24 25  1  0
 25 26  1  0
 25 27  1  0
 25 28  1  0
 23 29  1  0
 29 30  2  0
 20 31  1  0
 31 32  2  0
  6  5  1  0
 12  9  2  0
 15 11  1  0
 32 17  1  0
 30 21  1  0
  3 33  1  0
  3 34  1  0
  4 35  1  0
  4 36  1  0
  5 37  1  0
  5 38  1  0
  8 39  1  0
  9 40  1  0
 10 41  1  0
 13 42  1  0
 16 43  1  0
 16 44  1  0
 18 45  1  0
 19 46  1  0
 22 47  1  0
 24 48  1  0
 24 49  1  0
 26 50  1  0
 26 51  1  0
 26 52  1  0
 27 53  1  0
 28 54  1  0
 28 55  1  0
 28 56  1  0
 30 57  1  0
 31 58  1  0
 32 59  1  0
M  END
$$$$
3I0
     RDKit          3D

 39 42  0  0  0  0  0  0  0  0999 V2000
    2.4441    2.6036   -0.9801 O   0  0  0  0  0  0  0  0  0  0  0  0
    3.0663    1.9804   -1.8851 C   0  0  0  0  0  0  0  0  0  0  0  0
    3.9503    2.6237   -2.9242 C   0  0  0  0  0  0  0  0  0  0  0  0
    4.7086    1.3867   -3.4226 C   0  0  0  0  0  0  0  0  0  0  0  0
    3.5503    0.3781   -3.4310 C   0  0  0  0  0  0  0  0  0  0  0  0
    3.0435    0.5739   -2.0831 N   0  0  0  0  0  0  0  0  0  0  0  0
    2.6257   -0.4377   -1.1824 C   0  0  0  0  0  0  0  0  0  0  0  0
    3.1244   -1.7393   -1.2769 C   0  0  0  0  0  0  0  0  0  0  0  0
    2.7177   -2.7421   -0.3885 C   0  0  0  0  0  0  0  0  0  0  0  0
    1.7926   -2.3811    0.5933 C   0  0  0  0  0  0  0  0  0  0  0  0
    1.2004   -3.1032    1.5929 N   0  0  0  0  0  0  0  0  0  0  0  0
    0.3495   -2.4031    2.3484 N   0  0  0  0  0  0  0  0  0  0  0  0
    0.3857   -1.1579    1.8169 C   0  0  0  0  0  0  0  0  0  0  0  0
    1.2708   -1.0985    0.7229 C   0  0  0  0  0  0  0  0  0  0  0  0
    1.6992   -0.1004   -0.1896 C   0  0  0  0  0  0  0  0  0  0  0  0
   -0.4427   -0.0638    2.3967 C   0  0  0  0  0  0  0  0  0  0  0  0
   -1.5856    0.2038    1.4659 C   0  0  0  0  0  0  0  0  0  0  0  0
   -1.6598    1.4156    0.7407 C   0  0  0  0  0  0  0  0  0  0  0  0
   -2.7024    1.6819   -0.1450 C   0  0  0  0  0  0  0  0  0  0  0  0
   -3.7062    0.7148   -0.3189 C   0  0  0  0  0  0  0  0  0  0  0  0
   -3.6511   -0.4831    0.3847 C   0  0  0  0  0  0  0  0  0  0  0  0
   -2.5976   -0.7338    1.2699 C   0  0  0  0  0  0  0  0  0  0  0  0
    4.5992    3.3199   -2.3913 H   0  0  0  0  0  0  0  0  0  0  0  0
    3.3603    3.0651   -3.7445 H   0  0  0  0  0  0  0  0  0  0  0  0
    5.1486    1.5314   -4.4048 H   0  0  0  0  0  0  0  0  0  0  0  0
    5.3966    1.0553   -2.6425 H   0  0  0  0  0  0  0  0  0  0  0  0
    2.8084    0.7577   -4.1541 H   0  0  0  0  0  0  0  0  0  0  0  0
    3.8954   -0.6396   -3.6283 H   0  0  0  0  0  0  0  0  0  0  0  0
    3.8269   -1.9351   -2.0523 H   0  0  0  0  0  0  0  0  0  0  0  0
    3.0912   -3.7424   -0.4490 H   0  0  0  0  0  0  0  0  0  0  0  0
    1.4269   -4.1153    1.7154 H   0  0  0  0  0  0  0  0  0  0  0  0
    1.2587    0.8377   -0.0237 H   0  0  0  0  0  0  0  0  0  0  0  0
    0.1932    0.8428    2.3873 H   0  0  0  0  0  0  0  0  0  0  0  0
   -0.7170   -0.2569    3.4174 H   0  0  0  0  0  0  0  0  0  0  0  0
   -0.9017    2.1577    0.8657 H   0  0  0  0  0  0  0  0  0  0  0  0
   -2.7389    2.6144   -0.6881 H   0  0  0  0  0  0  0  0  0  0  0  0
   -4.5184    0.8959   -0.9938 H   0  0  0  0  0  0  0  0  0  0  0  0
   -4.3881   -1.2447    0.2860 H   0  0  0  0  0  0  0  0  0  0  0  0
   -2.5271   -1.6493    1.8282 H   0  0  0  0  0  0  0  0  0  0  0  0
  1  2  2  0
  2  3  1  0
  3  4  1  0
  4  5  1  0
  5  6  1  0
  6  7  1  0
  7  8  2  0
  8  9  1  0
  9 10  2  0
 10 11  1  0
 11 12  1  0
 12 13  2  0
 13 14  1  0
 14 15  2  0
 13 16  1  0
 16 17  1  0
 17 18  2  0
 18 19  1  0
 19 20  2  0
 20 21  1  0
 21 22  2  0
  6  2  1  0
 15  7  1  0
 14 10  1  0
 22 17  1  0
  3 23  1  0
  3 24  1  0
  4 25  1  0
  4 26  1  0
  5 27  1  0
  5 28  1  0
  8 29  1  0
  9 30  1  0
 11 31  1  0
 15 32  1  0
 16 33  1  0
 16 34  1  0
 18 35  1  0
 19 36  1  0
 20 37  1  0
 21 38  1  0
 22 39  1  0
M  END
$$$$
3I1
     RDKit          3D

 55 58  0  0  0  0  0  0  0  0999 V2000
   -2.7779    3.0165   -0.8348 C   0  0  0  0  0  0  0  0  0  0  0  0
   -2.7234    1.6856   -0.1249 C   0  0  0  0  0  0  0  0  0  0  0  0
   -1.6659    1.4230    0.7663 C   0  0  0  0  0  0  0  0  0  0  0  0
   -1.5872    0.2084    1.4724 C   0  0  0  0  0  0  0  0  0  0  0  0
   -0.4492   -0.0697    2.4081 C   0  0  0  0  0  0  0  0  0  0  0  0
    0.3831   -1.1575    1.8207 C   0  0  0  0  0  0  0  0  0  0  0  0
    0.3481   -2.4076    2.3400 N   0  0  0  0  0  0  0  0  0  0  0  0
    1.1998   -3.1002    1.5818 N   0  0  0  0  0  0  0  0  0  0  0  0
    1.7959   -2.3705    0.5873 C   0  0  0  0  0  0  0  0  0  0  0  0
    2.7191   -2.7216   -0.3946 C   0  0  0  0  0  0  0  0  0  0  0  0
    3.1274   -1.7228   -1.2724 C   0  0  0  0  0  0  0  0  0  0  0  0
    2.6294   -0.4097   -1.1741 C   0  0  0  0  0  0  0  0  0  0  0  0
    1.6993   -0.0841   -0.1747 C   0  0  0  0  0  0  0  0  0  0  0  0
    1.2713   -1.0840    0.7268 C   0  0  0  0  0  0  0  0  0  0  0  0
    3.1144    0.5933   -2.1512 C   0  0  0  0  0  0  0  0  0  0  0  0
    3.0187    1.9088   -1.8335 N   0  0  0  0  0  0  0  0  0  0  0  0
    3.5974    0.2591   -3.2315 O   0  0  0  0  0  0  0  0  0  0  0  0
   -2.5977   -0.7382    1.2610 C   0  0  0  0  0  0  0  0  0  0  0  0
   -3.6487   -0.4882    0.3801 C   0  0  0  0  0  0  0  0  0  0  0  0
   -3.7055    0.7277   -0.3110 C   0  0  0  0  0  0  0  0  0  0  0  0
   -4.7883    1.0095   -1.2442 C   0  0  0  0  0  0  0  0  0  0  0  0
   -4.7659    1.4956   -2.5340 C   0  0  0  0  0  0  0  0  0  0  0  0
   -6.0288    1.6034   -3.0259 N   0  0  0  0  0  0  0  0  0  0  0  0
   -6.8361    1.2016   -2.0882 N   0  0  0  0  0  0  0  0  0  0  0  0
   -6.1569    0.8284   -0.9849 C   0  0  0  0  0  0  0  0  0  0  0  0
   -6.3318    2.0857   -4.3583 C   0  0  0  0  0  0  0  0  0  0  0  0
   -6.3623    0.9479   -5.3293 C   0  0  0  0  0  0  0  0  0  0  0  0
   -5.0239    0.2495   -5.3645 C   0  0  0  0  0  0  0  0  0  0  0  0
   -7.3238   -0.0002   -5.0110 O   0  0  0  0  0  0  0  0  0  0  0  0
   -6.5890    1.5269   -6.7205 C   0  0  0  0  0  0  0  0  0  0  0  0
   -2.3507    3.8130   -0.1879 H   0  0  0  0  0  0  0  0  0  0  0  0
   -2.2294    2.8946   -1.7707 H   0  0  0  0  0  0  0  0  0  0  0  0
   -3.8395    3.2167   -1.0721 H   0  0  0  0  0  0  0  0  0  0  0  0
   -0.9032    2.1816    0.9015 H   0  0  0  0  0  0  0  0  0  0  0  0
    0.1805    0.8431    2.4104 H   0  0  0  0  0  0  0  0  0  0  0  0
   -0.7274   -0.2765    3.4218 H   0  0  0  0  0  0  0  0  0  0  0  0
    1.4078   -4.1142    1.7193 H   0  0  0  0  0  0  0  0  0  0  0  0
    3.0873   -3.7259   -0.4540 H   0  0  0  0  0  0  0  0  0  0  0  0
    3.8419   -1.9664   -2.0437 H   0  0  0  0  0  0  0  0  0  0  0  0
    1.2609    0.8523   -0.0066 H   0  0  0  0  0  0  0  0  0  0  0  0
    2.1023    2.3404   -1.5482 H   0  0  0  0  0  0  0  0  0  0  0  0
    3.8319    2.5650   -1.8510 H   0  0  0  0  0  0  0  0  0  0  0  0
   -2.5432   -1.6722    1.8001 H   0  0  0  0  0  0  0  0  0  0  0  0
   -4.4265   -1.2297    0.2240 H   0  0  0  0  0  0  0  0  0  0  0  0
   -3.8578    1.7533   -3.0773 H   0  0  0  0  0  0  0  0  0  0  0  0
   -6.5451    0.4506   -0.0434 H   0  0  0  0  0  0  0  0  0  0  0  0
   -5.5098    2.7743   -4.6925 H   0  0  0  0  0  0  0  0  0  0  0  0
   -7.2674    2.6740   -4.3746 H   0  0  0  0  0  0  0  0  0  0  0  0
   -4.8752   -0.2948   -6.3318 H   0  0  0  0  0  0  0  0  0  0  0  0
   -4.9056   -0.4864   -4.5251 H   0  0  0  0  0  0  0  0  0  0  0  0
   -4.1875    0.9904   -5.3263 H   0  0  0  0  0  0  0  0  0  0  0  0
   -8.1454    0.3877   -4.6558 H   0  0  0  0  0  0  0  0  0  0  0  0
   -6.8091    2.6153   -6.6718 H   0  0  0  0  0  0  0  0  0  0  0  0
   -7.4179    0.9771   -7.2550 H   0  0  0  0  0  0  0  0  0  0  0  0
   -5.7058    1.4177   -7.3700 H   0  0  0  0  0  0  0  0  0  0  0  0
  1  2  1  0
  2  3  2  0
  3  4  1  0
  4  5  1  0
  5  6  1  0
  6  7  2  0
  7  8  1  0
  8  9  1  0
  9 10  2  0
 10 11  1  0
 11 12  2  0
 12 13  1  0
 13 14  2  0
 12 15  1  0
 15 16  1  0
 15 17  2  0
  4 18  2  0
 18 19  1  0
 19 20  2  0
 20 21  1  0
 21 22  2  0
 22 23  1  0
 23 24  1  0
 24 25  2  0
 23 26  1  0
 26 27  1  0
 27 28  1  0
 27 29  1  0
 27 30  1  0
 20  2  1  0
 14  6  1  0
 14  9  1  0
 25 21  1  0
  1 31  1  0
  1 32  1  0
  1 33  1  0
  3 34  1  0
  5 35  1  0
  5 36  1  0
  8 37  1  0
 10 38  1  0
 11 39  1  0
 13 40  1  0
 16 41  1  0
 16 42  1  0
 18 43  1  0
 19 44  1  0
 22 45  1  0
 25 46  1  0
 26 47  1  0
 26 48  1  0
 28 49  1  0
 28 50  1  0
 28 51  1  0
 29 52  1  0
 30 53  1  0
 30 54  1  0
 30 55  1  0
M  END
$$$$
3PA
     RDKit          3D

 35 37  0  0  0  0  0  0  0  0999 V2000
    3.5794    0.2579   -3.2508 O   0  0  0  0  0  0  0  0  0  0  0  0
    3.1005    0.5881   -2.1734 C   0  0  0  0  0  0  0  0  0  0  0  0
    2.6232   -0.4178   -1.1865 C   0  0  0  0  0  0  0  0  0  0  0  0
    3.1159   -1.7252   -1.2897 C   0  0  0  0  0  0  0  0  0  0  0  0
    2.7139   -2.7274   -0.3998 C   0  0  0  0  0  0  0  0  0  0  0  0
    1.6888   -0.0856   -0.1905 C   0  0  0  0  0  0  0  0  0  0  0  0
    1.2730   -1.0834    0.7134 C   0  0  0  0  0  0  0  0  0  0  0  0
    1.7943   -2.3658    0.5884 C   0  0  0  0  0  0  0  0  0  0  0  0
    1.2076   -3.0920    1.5884 N   0  0  0  0  0  0  0  0  0  0  0  0
    0.3636   -2.3894    2.3607 N   0  0  0  0  0  0  0  0  0  0  0  0
    0.3752   -1.1602    1.8192 C   0  0  0  0  0  0  0  0  0  0  0  0
   -0.4592   -0.0729    2.4173 C   0  0  0  0  0  0  0  0  0  0  0  0
   -1.5922    0.1992    1.4545 C   0  0  0  0  0  0  0  0  0  0  0  0
   -1.6698    1.4259    0.7742 C   0  0  0  0  0  0  0  0  0  0  0  0
   -2.7147    1.6900   -0.1222 C   0  0  0  0  0  0  0  0  0  0  0  0
   -2.7950    3.0138   -0.8234 C   0  0  0  0  0  0  0  0  0  0  0  0
   -3.7105    0.7261   -0.3117 C   0  0  0  0  0  0  0  0  0  0  0  0
   -3.6524   -0.4906    0.3663 C   0  0  0  0  0  0  0  0  0  0  0  0
   -2.6016   -0.7525    1.2445 C   0  0  0  0  0  0  0  0  0  0  0  0
    3.0277    1.9070   -1.8179 N   0  0  0  0  0  0  0  0  0  0  0  0
    3.8268   -1.9725   -2.0776 H   0  0  0  0  0  0  0  0  0  0  0  0
    3.1001   -3.7381   -0.4845 H   0  0  0  0  0  0  0  0  0  0  0  0
    1.2610    0.9080   -0.1271 H   0  0  0  0  0  0  0  0  0  0  0  0
    1.3467   -4.0731    1.8004 H   0  0  0  0  0  0  0  0  0  0  0  0
   -0.8659   -0.3616    3.3938 H   0  0  0  0  0  0  0  0  0  0  0  0
    0.1516    0.8235    2.5750 H   0  0  0  0  0  0  0  0  0  0  0  0
   -0.9098    2.1861    0.9422 H   0  0  0  0  0  0  0  0  0  0  0  0
   -3.3515    2.9278   -1.7629 H   0  0  0  0  0  0  0  0  0  0  0  0
   -1.7941    3.3824   -1.0717 H   0  0  0  0  0  0  0  0  0  0  0  0
   -3.2961    3.7465   -0.1831 H   0  0  0  0  0  0  0  0  0  0  0  0
   -4.5391    0.9168   -0.9898 H   0  0  0  0  0  0  0  0  0  0  0  0
   -4.4272   -1.2368    0.2114 H   0  0  0  0  0  0  0  0  0  0  0  0
   -2.5680   -1.7081    1.7657 H   0  0  0  0  0  0  0  0  0  0  0  0
    2.9203    2.1983   -0.8575 H   0  0  0  0  0  0  0  0  0  0  0  0
    3.4772    2.5555   -2.4522 H   0  0  0  0  0  0  0  0  0  0  0  0
  1  2  2  0
  2  3  1  0
  3  4  2  0
  4  5  1  0
  3  6  1  0
  6  7  2  0
  7  8  1  0
  8  9  1  0
  9 10  1  0
 10 11  2  0
 11 12  1  0
 12 13  1  0
 13 14  2  0
 14 15  1  0
 15 16  1  0
 15 17  2  0
 17 18  1  0
 18 19  2  0
  2 20  1  0
  8  5  2  0
 11  7  1  0
 19 13  1  0
  4 21  1  0
  5 22  1  0
  6 23  1  0
  9 24  1  0
 12 25  1  0
 12 26  1  0
 14 27  1  0
 16 28  1  0
 16 29  1  0
 16 30  1  0
 17 31  1  0
 18 32  1  0
 19 33  1  0
 20 34  1  0
 20 35  1  0
M  END
$$$$
