4PB
     RDKit          3D

 55 58  0  0  0  0  0  0  0  0999 V2000
    4.1585    1.9477    1.8421 C   0  0  0  0  0  0  0  0  0  0  0  0
    3.5160    0.7276    1.3941 N   0  0  0  0  0  0  0  0  0  0  0  0
    2.1009    0.5937    1.4053 C   0  0  0  0  0  0  0  0  0  0  0  0
    1.5176   -0.6749    0.9247 C   0  0  0  0  0  0  0  0  0  0  0  0
    0.7504   -0.6583   -0.2297 C   0  0  0  0  0  0  0  0  0  0  0  0
    0.1698   -1.8360   -0.7149 C   0  0  0  0  0  0  0  0  0  0  0  0
    0.3975   -3.0112    0.0062 C   0  0  0  0  0  0  0  0  0  0  0  0
   -0.2757   -3.9739   -0.6914 N   0  0  0  0  0  0  0  0  0  0  0  0
   -0.9163   -3.5292   -1.7899 N   0  0  0  0  0  0  0  0  0  0  0  0
   -0.6486   -2.2085   -1.8105 C   0  0  0  0  0  0  0  0  0  0  0  0
   -1.2012   -1.3158   -2.8775 C   0  0  0  0  0  0  0  0  0  0  0  0
   -2.3616   -0.5850   -2.2527 C   0  0  0  0  0  0  0  0  0  0  0  0
   -2.2429    0.7352   -1.8013 C   0  0  0  0  0  0  0  0  0  0  0  0
   -3.3012    1.3932   -1.1913 C   0  0  0  0  0  0  0  0  0  0  0  0
   -4.5310    0.7555   -1.0056 C   0  0  0  0  0  0  0  0  0  0  0  0
   -4.6539   -0.5660   -1.4598 C   0  0  0  0  0  0  0  0  0  0  0  0
   -3.5875   -1.2219   -2.0707 C   0  0  0  0  0  0  0  0  0  0  0  0
   -5.6340    1.3893   -0.3044 C   0  0  0  0  0  0  0  0  0  0  0  0
   -6.7779    0.8286    0.2060 C   0  0  0  0  0  0  0  0  0  0  0  0
   -7.4897    1.7586    0.8715 N   0  0  0  0  0  0  0  0  0  0  0  0
   -6.8060    2.8595    0.7783 N   0  0  0  0  0  0  0  0  0  0  0  0
   -5.6841    2.7101    0.0868 C   0  0  0  0  0  0  0  0  0  0  0  0
   -8.7911    1.4564    1.4676 C   0  0  0  0  0  0  0  0  0  0  0  0
   -9.9027    1.8222    0.5005 C   0  0  0  0  0  0  0  0  0  0  0  0
   -9.8435    1.1241   -0.8178 C   0  0  0  0  0  0  0  0  0  0  0  0
   -9.9203    3.2097    0.4047 O   0  0  0  0  0  0  0  0  0  0  0  0
  -11.2206    1.3988    1.1778 C   0  0  0  0  0  0  0  0  0  0  0  0
    1.1604   -3.0554    1.1625 C   0  0  0  0  0  0  0  0  0  0  0  0
    1.7238   -1.8776    1.6267 C   0  0  0  0  0  0  0  0  0  0  0  0
    1.3205    1.4571    1.7842 O   0  0  0  0  0  0  0  0  0  0  0  0
    4.5237    2.4999    0.9375 H   0  0  0  0  0  0  0  0  0  0  0  0
    3.4624    2.6035    2.4042 H   0  0  0  0  0  0  0  0  0  0  0  0
    4.9939    1.7384    2.5508 H   0  0  0  0  0  0  0  0  0  0  0  0
    4.1642   -0.0467    1.0757 H   0  0  0  0  0  0  0  0  0  0  0  0
    0.5385    0.2006   -0.8316 H   0  0  0  0  0  0  0  0  0  0  0  0
   -0.2936   -4.9812   -0.3913 H   0  0  0  0  0  0  0  0  0  0  0  0
   -0.4545   -0.5657   -3.1591 H   0  0  0  0  0  0  0  0  0  0  0  0
   -1.4613   -1.8855   -3.7520 H   0  0  0  0  0  0  0  0  0  0  0  0
   -1.2924    1.2462   -1.9404 H   0  0  0  0  0  0  0  0  0  0  0  0
   -3.1462    2.4000   -0.8707 H   0  0  0  0  0  0  0  0  0  0  0  0
   -5.6059   -1.0578   -1.3086 H   0  0  0  0  0  0  0  0  0  0  0  0
   -3.7265   -2.2203   -2.3928 H   0  0  0  0  0  0  0  0  0  0  0  0
   -7.0792   -0.2214    0.0913 H   0  0  0  0  0  0  0  0  0  0  0  0
   -4.9576    3.4528   -0.1211 H   0  0  0  0  0  0  0  0  0  0  0  0
   -8.9533    1.9841    2.4006 H   0  0  0  0  0  0  0  0  0  0  0  0
   -8.8914    0.3616    1.6399 H   0  0  0  0  0  0  0  0  0  0  0  0
   -9.2395    1.6833   -1.5744 H   0  0  0  0  0  0  0  0  0  0  0  0
  -10.8756    1.1083   -1.2634 H   0  0  0  0  0  0  0  0  0  0  0  0
   -9.5346    0.0784   -0.7100 H   0  0  0  0  0  0  0  0  0  0  0  0
  -10.2269    3.5370    1.3012 H   0  0  0  0  0  0  0  0  0  0  0  0
  -11.3288    0.2973    1.1062 H   0  0  0  0  0  0  0  0  0  0  0  0
  -11.2847    1.7694    2.2126 H   0  0  0  0  0  0  0  0  0  0  0  0
  -12.0588    1.8147    0.5770 H   0  0  0  0  0  0  0  0  0  0  0  0
    1.3069   -3.9683    1.6818 H   0  0  0  0  0  0  0  0  0  0  0  0
    2.3303   -1.8577    2.5241 H   0  0  0  0  0  0  0  0  0  0  0  0
  1  2  1  0
  2  3  1  0
  3  4  1  0
  4  5  2  0
  5  6  1  0
  6  7  2  0
  7  8  1  0
  8  9  1  0
  9 10  2  0
 10 11  1  0
 11 12  1  0
 12 13  2  0
 13 14  1  0
 14 15  2  0
 15 16  1  0
 16 17  2  0
 15 18  1  0
 18 19  2  0
 19 20  1  0
 20 21  1  0
 21 22  2  0
 20 23  1  0
 23 24  1  0
 24 25  1  0
 24 26  1  0
 24 27  1  0
  7 28  1  0
 28 29  2  0
  3 30  2  0
 29  4  1  0
 10  6  1  0
 17 12  1  0
 22 18  1  0
  1 31  1  0
  1 32  1  0
  1 33  1  0
  2 34  1  0
  5 35  1  0
  8 36  1  0
 11 37  1  0
 11 38  1  0
 13 39  1  0
 14 40  1  0
 16 41  1  0
 17 42  1  0
 19 43  1  0
 22 44  1  0
 23 45  1  0
 23 46  1  0
 25 47  1  0
 25 48  1  0
 25 49  1  0
 26 50  1  0
 27 51  1  0
 27 52  1  0
 27 53  1  0
 28 54  1  0
 29 55  1  0
M  END
$$$$
4I0
     RDKit          3D

 67 71  0  0  0  0  0  0  0  0999 V2000
   -1.9167    3.0850   -0.4763 C   0  0  0  0  0  0  0  0  0  0  0  0
   -3.2279    2.6210   -0.5039 O   0  0  0  0  0  0  0  0  0  0  0  0
   -3.3046    1.3644   -1.0783 C   0  0  0  0  0  0  0  0  0  0  0  0
   -2.3044    0.6818   -1.6159 C   0  0  0  0  0  0  0  0  0  0  0  0
   -2.3652   -0.6174   -2.1950 C   0  0  0  0  0  0  0  0  0  0  0  0
   -1.2491   -1.3532   -2.7989 C   0  0  0  0  0  0  0  0  0  0  0  0
   -0.6928   -2.2204   -1.7466 C   0  0  0  0  0  0  0  0  0  0  0  0
   -0.9480   -3.5580   -1.7609 N   0  0  0  0  0  0  0  0  0  0  0  0
   -0.2741   -3.9516   -0.7383 N   0  0  0  0  0  0  0  0  0  0  0  0
    0.4013   -2.9917   -0.0527 C   0  0  0  0  0  0  0  0  0  0  0  0
    1.2085   -3.0684    1.1109 C   0  0  0  0  0  0  0  0  0  0  0  0
    1.7573   -1.8784    1.5947 C   0  0  0  0  0  0  0  0  0  0  0  0
    1.5081   -0.6549    0.9398 C   0  0  0  0  0  0  0  0  0  0  0  0
    2.1211    0.6023    1.3887 C   0  0  0  0  0  0  0  0  0  0  0  0
    3.4900    0.7689    1.3537 N   0  0  0  0  0  0  0  0  0  0  0  0
    4.4250   -0.2092    0.8291 C   0  0  0  0  0  0  0  0  0  0  0  0
    5.8870    0.1897    0.9795 C   0  0  0  0  0  0  0  0  0  0  0  0
    6.2075    1.5240    0.6476 O   0  0  0  0  0  0  0  0  0  0  0  0
    5.1397    2.4753    0.8084 C   0  0  0  0  0  0  0  0  0  0  0  0
    4.0830    2.0048    1.8428 C   0  0  0  0  0  0  0  0  0  0  0  0
    1.3307    1.4793    1.7805 O   0  0  0  0  0  0  0  0  0  0  0  0
    0.7160   -0.6546   -0.1832 C   0  0  0  0  0  0  0  0  0  0  0  0
    0.1410   -1.8180   -0.7076 C   0  0  0  0  0  0  0  0  0  0  0  0
   -3.4836   -1.1924   -2.2118 C   0  0  0  0  0  0  0  0  0  0  0  0
   -4.5674   -0.5214   -1.6677 C   0  0  0  0  0  0  0  0  0  0  0  0
   -4.5315    0.7431   -1.0958 C   0  0  0  0  0  0  0  0  0  0  0  0
   -5.7078    1.3906   -0.5434 C   0  0  0  0  0  0  0  0  0  0  0  0
   -6.0286    2.7122   -0.7821 C   0  0  0  0  0  0  0  0  0  0  0  0
   -7.1624    3.0304   -0.1466 N   0  0  0  0  0  0  0  0  0  0  0  0
   -7.8820    4.2763   -0.0972 C   0  0  0  0  0  0  0  0  0  0  0  0
   -8.9052    4.4379   -1.1695 C   0  0  0  0  0  0  0  0  0  0  0  0
   -9.5021    5.7066   -0.9617 O   0  0  0  0  0  0  0  0  0  0  0  0
   -8.3081    4.4905   -2.5577 C   0  0  0  0  0  0  0  0  0  0  0  0
  -10.0266    3.4422   -1.0839 C   0  0  0  0  0  0  0  0  0  0  0  0
   -7.5623    1.9405    0.4860 N   0  0  0  0  0  0  0  0  0  0  0  0
   -6.7062    0.9311    0.2676 C   0  0  0  0  0  0  0  0  0  0  0  0
   -1.3073    2.4400    0.1905 H   0  0  0  0  0  0  0  0  0  0  0  0
   -1.5053    3.1289   -1.5026 H   0  0  0  0  0  0  0  0  0  0  0  0
   -1.8902    4.1211   -0.0652 H   0  0  0  0  0  0  0  0  0  0  0  0
   -1.3182    1.0391   -1.6996 H   0  0  0  0  0  0  0  0  0  0  0  0
   -1.5215   -1.8741   -3.7519 H   0  0  0  0  0  0  0  0  0  0  0  0
   -0.4518   -0.7033   -3.2518 H   0  0  0  0  0  0  0  0  0  0  0  0
   -0.2336   -4.9645   -0.4264 H   0  0  0  0  0  0  0  0  0  0  0  0
    1.3720   -4.0096    1.5893 H   0  0  0  0  0  0  0  0  0  0  0  0
    2.3705   -1.9024    2.4828 H   0  0  0  0  0  0  0  0  0  0  0  0
    4.3291   -1.1191    1.4378 H   0  0  0  0  0  0  0  0  0  0  0  0
    4.2425   -0.4126   -0.2476 H   0  0  0  0  0  0  0  0  0  0  0  0
    6.4389   -0.4210    0.2128 H   0  0  0  0  0  0  0  0  0  0  0  0
    6.2606   -0.0589    1.9962 H   0  0  0  0  0  0  0  0  0  0  0  0
    5.5393    3.4058    1.2144 H   0  0  0  0  0  0  0  0  0  0  0  0
    4.6101    2.6033   -0.1435 H   0  0  0  0  0  0  0  0  0  0  0  0
    3.3452    2.8001    1.8439 H   0  0  0  0  0  0  0  0  0  0  0  0
    4.5340    1.9021    2.8381 H   0  0  0  0  0  0  0  0  0  0  0  0
    0.5277    0.2127   -0.6896 H   0  0  0  0  0  0  0  0  0  0  0  0
   -3.7777   -2.1823   -2.5986 H   0  0  0  0  0  0  0  0  0  0  0  0
   -5.5904   -0.9530   -1.6418 H   0  0  0  0  0  0  0  0  0  0  0  0
   -5.4701    3.4026   -1.3830 H   0  0  0  0  0  0  0  0  0  0  0  0
   -8.3934    4.3864    0.8815 H   0  0  0  0  0  0  0  0  0  0  0  0
   -7.1931    5.1651   -0.1640 H   0  0  0  0  0  0  0  0  0  0  0  0
   -9.9217    6.0464   -1.7918 H   0  0  0  0  0  0  0  0  0  0  0  0
   -8.8097    5.2855   -3.1841 H   0  0  0  0  0  0  0  0  0  0  0  0
   -8.4522    3.5516   -3.1217 H   0  0  0  0  0  0  0  0  0  0  0  0
   -7.2458    4.8108   -2.4984 H   0  0  0  0  0  0  0  0  0  0  0  0
  -10.2359    3.2040   -0.0302 H   0  0  0  0  0  0  0  0  0  0  0  0
   -9.8611    2.5159   -1.6303 H   0  0  0  0  0  0  0  0  0  0  0  0
  -10.9486    3.9176   -1.5300 H   0  0  0  0  0  0  0  0  0  0  0  0
   -6.7587   -0.0794    0.6456 H   0  0  0  0  0  0  0  0  0  0  0  0
  1  2  1  0
  2  3  1  0
  3  4  2  0
  4  5  1  0
  5  6  1  0
  6  7  1  0
  7  8  2  0
  8  9  1  0
  9 10  1  0
 10 11  2  0
 11 12  1  0
 12 13  2  0
 13 14  1  0
 14 15  1  0
 15 16  1  0
 16 17  1  0
 17 18  1  0
 18 19  1  0
 19 20  1  0
 14 21  2  0
 13 22  1  0
 22 23  2  0
  5 24  2  0
 24 25  1  0
 25 26  2  0
 26 27  1  0
 27 28  2  0
 28 29  1  0
 29 30  1  0
 30 31  1  0
 31 32  1  0
 31 33  1  0
 31 34  1  0
 29 35  1  0
 35 36  2  0
 26  3  1  0
 23  7  1  0
 23 10  1  0
 20 15  1  0
 36 27  1  0
  1 37  1  0
  1 38  1  0
  1 39  1  0
  4 40  1  0
  6 41  1  0
  6 42  1  0
  9 43  1  0
 11 44  1  0
 12 45  1  0
 16 46  1  0
 16 47  1  0
 17 48  1  0
 17 49  1  0
 19 50  1  0
 19 51  1  0
 20 52  1  0
 20 53  1  0
 22 54  1  0
 24 55  1  0
 25 56  1  0
 28 57  1  0
 30 58  1  0
 30 59  1  0
 32 60  1  0
 33 61  1  0
 33 62  1  0
 33 63  1  0
 34 64  1  0
 34 65  1  0
 34 66  1  0
 36 67  1  0
M  END
$$$$
4I1
     RDKit          3D

 59 62  0  0  0  0  0  0  0  0999 V2000
    4.1853    1.8472    2.0533 C   0  0  0  0  0  0  0  0  0  0  0  0
    3.5178    0.6556    1.5667 N   0  0  0  0  0  0  0  0  0  0  0  0
    2.1132    0.6192    1.3601 C   0  0  0  0  0  0  0  0  0  0  0  0
    1.5289   -0.6289    0.8671 C   0  0  0  0  0  0  0  0  0  0  0  0
    1.7484   -1.8225    1.5719 C   0  0  0  0  0  0  0  0  0  0  0  0
    1.1919   -3.0065    1.1284 C   0  0  0  0  0  0  0  0  0  0  0  0
    0.4166   -2.9847   -0.0226 C   0  0  0  0  0  0  0  0  0  0  0  0
   -0.2653   -3.9581   -0.7042 N   0  0  0  0  0  0  0  0  0  0  0  0
   -0.9201   -3.5354   -1.7930 N   0  0  0  0  0  0  0  0  0  0  0  0
   -0.6585   -2.2113   -1.8351 C   0  0  0  0  0  0  0  0  0  0  0  0
   -1.2373   -1.3258   -2.8987 C   0  0  0  0  0  0  0  0  0  0  0  0
   -2.3949   -0.6031   -2.2457 C   0  0  0  0  0  0  0  0  0  0  0  0
   -3.6214   -1.2231   -2.1006 C   0  0  0  0  0  0  0  0  0  0  0  0
   -4.6750   -0.5504   -1.4695 C   0  0  0  0  0  0  0  0  0  0  0  0
   -4.5615    0.7355   -0.9626 C   0  0  0  0  0  0  0  0  0  0  0  0
   -5.7171    1.3564   -0.3290 C   0  0  0  0  0  0  0  0  0  0  0  0
   -6.9503    0.7529   -0.1933 C   0  0  0  0  0  0  0  0  0  0  0  0
   -7.8181    1.5653    0.4277 N   0  0  0  0  0  0  0  0  0  0  0  0
   -9.2016    1.2299    0.7245 C   0  0  0  0  0  0  0  0  0  0  0  0
  -10.1358    1.6229   -0.3863 C   0  0  0  0  0  0  0  0  0  0  0  0
  -11.4417    1.2784   -0.0462 O   0  0  0  0  0  0  0  0  0  0  0  0
   -9.9762    3.0968   -0.6664 C   0  0  0  0  0  0  0  0  0  0  0  0
   -9.8037    0.8779   -1.6740 C   0  0  0  0  0  0  0  0  0  0  0  0
   -7.1617    2.6743    0.6902 N   0  0  0  0  0  0  0  0  0  0  0  0
   -5.8735    2.5836    0.2422 C   0  0  0  0  0  0  0  0  0  0  0  0
   -3.3280    1.3606   -1.0989 C   0  0  0  0  0  0  0  0  0  0  0  0
   -3.2136    2.6295   -0.5732 O   0  0  0  0  0  0  0  0  0  0  0  0
   -1.9010    3.0998   -0.6471 C   0  0  0  0  0  0  0  0  0  0  0  0
   -2.2841    0.7016   -1.7300 C   0  0  0  0  0  0  0  0  0  0  0  0
    0.1733   -1.8235   -0.7519 C   0  0  0  0  0  0  0  0  0  0  0  0
    0.7516   -0.6262   -0.2823 C   0  0  0  0  0  0  0  0  0  0  0  0
    1.4012    1.5723    1.5766 O   0  0  0  0  0  0  0  0  0  0  0  0
    4.2071    1.8867    3.1622 H   0  0  0  0  0  0  0  0  0  0  0  0
    5.2650    1.8015    1.7451 H   0  0  0  0  0  0  0  0  0  0  0  0
    3.7190    2.7685    1.6339 H   0  0  0  0  0  0  0  0  0  0  0  0
    4.1078   -0.2048    1.3637 H   0  0  0  0  0  0  0  0  0  0  0  0
    2.3574   -1.8007    2.4637 H   0  0  0  0  0  0  0  0  0  0  0  0
    1.3366   -3.9190    1.6460 H   0  0  0  0  0  0  0  0  0  0  0  0
   -0.2485   -4.9423   -0.3627 H   0  0  0  0  0  0  0  0  0  0  0  0
   -0.5219   -0.5314   -3.2029 H   0  0  0  0  0  0  0  0  0  0  0  0
   -1.5098   -1.9000   -3.7649 H   0  0  0  0  0  0  0  0  0  0  0  0
   -3.7774   -2.2224   -2.4690 H   0  0  0  0  0  0  0  0  0  0  0  0
   -5.6078   -1.0786   -1.3850 H   0  0  0  0  0  0  0  0  0  0  0  0
   -7.2057   -0.2507   -0.5377 H   0  0  0  0  0  0  0  0  0  0  0  0
   -9.4847    1.7841    1.6270 H   0  0  0  0  0  0  0  0  0  0  0  0
   -9.3037    0.1484    0.8996 H   0  0  0  0  0  0  0  0  0  0  0  0
  -12.0694    1.9436   -0.4220 H   0  0  0  0  0  0  0  0  0  0  0  0
  -10.7811    3.4352   -1.3702 H   0  0  0  0  0  0  0  0  0  0  0  0
  -10.0587    3.6767    0.2659 H   0  0  0  0  0  0  0  0  0  0  0  0
   -8.9687    3.2178   -1.1471 H   0  0  0  0  0  0  0  0  0  0  0  0
  -10.7308    0.8091   -2.3062 H   0  0  0  0  0  0  0  0  0  0  0  0
   -9.0613    1.4241   -2.2912 H   0  0  0  0  0  0  0  0  0  0  0  0
   -9.4325   -0.1363   -1.4138 H   0  0  0  0  0  0  0  0  0  0  0  0
   -5.1387    3.3454    0.3316 H   0  0  0  0  0  0  0  0  0  0  0  0
   -1.7800    4.0433   -0.0848 H   0  0  0  0  0  0  0  0  0  0  0  0
   -1.6688    3.3386   -1.7077 H   0  0  0  0  0  0  0  0  0  0  0  0
   -1.1318    2.4068   -0.2787 H   0  0  0  0  0  0  0  0  0  0  0  0
   -1.3342    1.1572   -1.8744 H   0  0  0  0  0  0  0  0  0  0  0  0
    0.5414    0.2136   -0.8780 H   0  0  0  0  0  0  0  0  0  0  0  0
  1  2  1  0
  2  3  1  0
  3  4  1  0
  4  5  2  0
  5  6  1  0
  6  7  2  0
  7  8  1  0
  8  9  1  0
  9 10  2  0
 10 11  1  0
 11 12  1  0
 12 13  2  0
 13 14  1  0
 14 15  2  0
 15 16  1  0
 16 17  2  0
 17 18  1  0
 18 19  1  0
 19 20  1  0
 20 21  1  0
 20 22  1  0
 20 23  1  0
 18 24  1  0
 24 25  2  0
 15 26  1  0
 26 27  1  0
 27 28  1  0
 26 29  2  0
  7 30  1  0
 30 31  2  0
  3 32  2  0
 31  4  1  0
 30 10  1  0
 29 12  1  0
 25 16  1  0
  1 33  1  0
  1 34  1  0
  1 35  1  0
  2 36  1  0
  5 37  1  0
  6 38  1  0
  8 39  1  0
 11 40  1  0
 11 41  1  0
 13 42  1  0
 14 43  1  0
 17 44  1  0
 19 45  1  0
 19 46  1  0
 21 47  1  0
 22 48  1  0
 22 49  1  0
 22 50  1  0
 23 51  1  0
 23 52  1  0
 23 53  1  0
 25 54  1  0
 28 55  1  0
 28 56  1  0
 28 57  1  0
 29 58  1  0
 31 59  1  0
M  END
$$$$
4PA
     RDKit          3D

 51 54  0  0  0  0  0  0  0  0999 V2000
    1.3180    1.4331    1.8007 O   0  0  0  0  0  0  0  0  0  0  0  0
    2.1059    0.5732    1.4158 C   0  0  0  0  0  0  0  0  0  0  0  0
    3.4868    0.7314    1.4038 N   0  0  0  0  0  0  0  0  0  0  0  0
    4.4143   -0.1493    0.6827 C   0  0  0  0  0  0  0  0  0  0  0  0
    5.8752    0.2240    0.9579 C   0  0  0  0  0  0  0  0  0  0  0  0
    6.1877    1.5846    0.6249 O   0  0  0  0  0  0  0  0  0  0  0  0
    5.0996    2.5008    0.8298 C   0  0  0  0  0  0  0  0  0  0  0  0
    4.0576    2.0092    1.8378 C   0  0  0  0  0  0  0  0  0  0  0  0
    1.5382   -0.6922    0.9088 C   0  0  0  0  0  0  0  0  0  0  0  0
    1.7209   -1.8812    1.6215 C   0  0  0  0  0  0  0  0  0  0  0  0
    1.1629   -3.0786    1.1630 C   0  0  0  0  0  0  0  0  0  0  0  0
    0.7660   -0.6481   -0.2593 C   0  0  0  0  0  0  0  0  0  0  0  0
    0.1874   -1.8430   -0.7237 C   0  0  0  0  0  0  0  0  0  0  0  0
    0.4047   -3.0182   -0.0124 C   0  0  0  0  0  0  0  0  0  0  0  0
   -0.2751   -3.9850   -0.7028 N   0  0  0  0  0  0  0  0  0  0  0  0
   -0.9075   -3.5410   -1.8019 N   0  0  0  0  0  0  0  0  0  0  0  0
   -0.6577   -2.2213   -1.8082 C   0  0  0  0  0  0  0  0  0  0  0  0
   -1.2343   -1.3498   -2.8788 C   0  0  0  0  0  0  0  0  0  0  0  0
   -2.3806   -0.6020   -2.2405 C   0  0  0  0  0  0  0  0  0  0  0  0
   -2.2372    0.7398   -1.8668 C   0  0  0  0  0  0  0  0  0  0  0  0
   -3.2778    1.4060   -1.2114 C   0  0  0  0  0  0  0  0  0  0  0  0
   -3.1067    2.7202   -0.8471 O   0  0  0  0  0  0  0  0  0  0  0  0
   -2.2332    2.8121    0.2818 C   0  0  0  0  0  0  0  0  0  0  0  0
   -4.5059    0.7739   -0.9720 C   0  0  0  0  0  0  0  0  0  0  0  0
   -5.4612    1.5255   -0.3398 O   0  0  0  0  0  0  0  0  0  0  0  0
   -6.7334    0.9256   -0.1379 C   0  0  0  0  0  0  0  0  0  0  0  0
   -4.6595   -0.5572   -1.3674 C   0  0  0  0  0  0  0  0  0  0  0  0
   -3.6051   -1.2392   -1.9899 C   0  0  0  0  0  0  0  0  0  0  0  0
    4.1954   -0.0325   -0.3857 H   0  0  0  0  0  0  0  0  0  0  0  0
    4.2373   -1.1904    0.9634 H   0  0  0  0  0  0  0  0  0  0  0  0
    6.5423   -0.4198    0.3768 H   0  0  0  0  0  0  0  0  0  0  0  0
    6.1166    0.0746    2.0169 H   0  0  0  0  0  0  0  0  0  0  0  0
    5.5301    3.4506    1.1615 H   0  0  0  0  0  0  0  0  0  0  0  0
    4.6332    2.6740   -0.1476 H   0  0  0  0  0  0  0  0  0  0  0  0
    3.2799    2.7670    1.9745 H   0  0  0  0  0  0  0  0  0  0  0  0
    4.5293    1.8249    2.8110 H   0  0  0  0  0  0  0  0  0  0  0  0
    2.2936   -1.8757    2.5472 H   0  0  0  0  0  0  0  0  0  0  0  0
    1.2984   -4.0063    1.7099 H   0  0  0  0  0  0  0  0  0  0  0  0
    0.6097    0.2928   -0.7764 H   0  0  0  0  0  0  0  0  0  0  0  0
   -0.3503   -4.9690   -0.4735 H   0  0  0  0  0  0  0  0  0  0  0  0
   -0.4747   -0.6586   -3.2617 H   0  0  0  0  0  0  0  0  0  0  0  0
   -1.5937   -1.9367   -3.7315 H   0  0  0  0  0  0  0  0  0  0  0  0
   -1.3146    1.2748   -2.0732 H   0  0  0  0  0  0  0  0  0  0  0  0
   -1.1939    2.6291   -0.0147 H   0  0  0  0  0  0  0  0  0  0  0  0
   -2.2986    3.8331    0.6707 H   0  0  0  0  0  0  0  0  0  0  0  0
   -2.5299    2.1241    1.0832 H   0  0  0  0  0  0  0  0  0  0  0  0
   -7.3731    1.6578    0.3667 H   0  0  0  0  0  0  0  0  0  0  0  0
   -6.6580    0.0476    0.5147 H   0  0  0  0  0  0  0  0  0  0  0  0
   -7.2074    0.6713   -1.0930 H   0  0  0  0  0  0  0  0  0  0  0  0
   -5.5820   -1.1018   -1.1978 H   0  0  0  0  0  0  0  0  0  0  0  0
   -3.7395   -2.2841   -2.2684 H   0  0  0  0  0  0  0  0  0  0  0  0
  1  2  2  0
  2  3  1  0
  3  4  1  0
  4  5  1  0
  5  6  1  0
  6  7  1  0
  7  8  1  0
  2  9  1  0
  9 10  2  0
 10 11  1  0
  9 12  1  0
 12 13  2  0
 13 14  1  0
 14 15  1  0
 15 16  1  0
 16 17  2  0
 17 18  1  0
 18 19  1  0
 19 20  2  0
 20 21  1  0
 21 22  1  0
 22 23  1  0
 21 24  2  0
 24 25  1  0
 25 26  1  0
 24 27  1  0
 27 28  2  0
  8  3  1  0
 14 11  2  0
 17 13  1  0
 28 19  1  0
  4 29  1  0
  4 30  1  0
  5 31  1  0
  5 32  1  0
  7 33  1  0
  7 34  1  0
  8 35  1  0
  8 36  1  0
 10 37  1  0
 11 38  1  0
 12 39  1  0
 15 40  1  0
 18 41  1  0
 18 42  1  0
 20 43  1  0
 23 44  1  0
 23 45  1  0
 23 46  1  0
 26 47  1  0
 26 48  1  0
 26 49  1  0
 27 50  1  0
 28 51  1  0
M  END
$$$$
