to_align
     RDKit          3D

 31 32  0  0  0  0  0  0  0  0999 V2000
   -3.7949   -1.8206   -0.3882 C   0  0  0  0  0  0  0  0  0  0  0  0
   -2.4428   -2.1988    0.1749 C   0  0  0  0  0  0  0  0  0  0  0  0
   -2.0332   -1.1986    1.1999 C   0  0  0  0  0  0  0  0  0  0  0  0
   -1.4430   -2.5181   -0.8746 C   0  0  0  0  0  0  0  0  0  0  0  0
   -1.1895   -1.3843   -1.8039 C   0  0  0  0  0  0  0  0  0  0  0  0
   -1.8135   -1.3491   -3.0068 N   0  0  0  0  0  0  0  0  0  0  0  0
   -1.3910   -0.2060   -3.5588 N   0  0  0  0  0  0  0  0  0  0  0  0
   -0.5164    0.5179   -2.7799 C   0  0  0  0  0  0  0  0  0  0  0  0
   -0.3733   -0.2450   -1.6227 C   0  0  0  0  0  0  0  0  0  0  0  0
    0.4819    0.2368   -0.6079 C   0  0  0  0  0  0  0  0  0  0  0  0
    1.1516    1.4421   -0.7793 C   0  0  0  0  0  0  0  0  0  0  0  0
    0.9695    2.1771   -1.9733 C   0  0  0  0  0  0  0  0  0  0  0  0
    0.1357    1.7294   -2.9907 C   0  0  0  0  0  0  0  0  0  0  0  0
    2.0514    1.9470    0.2649 C   0  0  0  0  0  0  0  0  0  0  0  0
    2.7019    1.0041    1.0860 N   0  0  0  0  0  0  0  0  0  0  0  0
    2.1975    3.1344    0.3770 O   0  0  0  0  0  0  0  0  0  0  0  0
   -3.8517   -2.1905   -1.4416 H   0  0  0  0  0  0  0  0  0  0  0  0
   -4.5956   -2.3405    0.1709 H   0  0  0  0  0  0  0  0  0  0  0  0
   -4.0140   -0.7292   -0.3032 H   0  0  0  0  0  0  0  0  0  0  0  0
   -2.6093   -3.1649    0.7464 H   0  0  0  0  0  0  0  0  0  0  0  0
   -1.0703   -1.4097    1.6774 H   0  0  0  0  0  0  0  0  0  0  0  0
   -2.0102   -0.1503    0.8004 H   0  0  0  0  0  0  0  0  0  0  0  0
   -2.8657   -1.1606    1.9665 H   0  0  0  0  0  0  0  0  0  0  0  0
   -1.6581   -3.4481   -1.4033 H   0  0  0  0  0  0  0  0  0  0  0  0
   -0.4560   -2.6624   -0.3323 H   0  0  0  0  0  0  0  0  0  0  0  0
   -1.6716    0.1568   -4.5049 H   0  0  0  0  0  0  0  0  0  0  0  0
    0.5405   -0.3992    0.2320 H   0  0  0  0  0  0  0  0  0  0  0  0
    1.4934    3.1192   -2.1033 H   0  0  0  0  0  0  0  0  0  0  0  0
   -0.0193    2.2645   -3.9045 H   0  0  0  0  0  0  0  0  0  0  0  0
    2.2111    0.3658    1.7441 H   0  0  0  0  0  0  0  0  0  0  0  0
    3.7604    0.9077    1.0594 H   0  0  0  0  0  0  0  0  0  0  0  0
  1  2  1  0
  2  3  1  0
  2  4  1  0
  4  5  1  0
  5  6  2  0
  6  7  1  0
  7  8  1  0
  8  9  2  0
  9 10  1  0
 10 11  2  0
 11 12  1  0
 12 13  2  0
 11 14  1  0
 14 15  1  0
 14 16  2  0
  9  5  1  0
 13  8  1  0
  1 17  1  0
  1 18  1  0
  1 19  1  0
  2 20  1  0
  3 21  1  0
  3 22  1  0
  3 23  1  0
  4 24  1  0
  4 25  1  0
  7 26  1  0
 10 27  1  0
 12 28  1  0
 13 29  1  0
 15 30  1  0
 15 31  1  0
M  END
$$$$
intermediate
     RDKit          3D

 35 37  0  0  0  0  0  0  0  0999 V2000
    1.9618    3.1463    0.4965 O   0  0  0  0  0  0  0  0  0  0  0  0
    1.9605    1.9532    0.2992 C   0  0  0  0  0  0  0  0  0  0  0  0
    2.7461    1.0941    1.0948 N   0  0  0  0  0  0  0  0  0  0  0  0
    1.1263    1.4206   -0.7837 C   0  0  0  0  0  0  0  0  0  0  0  0
    1.0395    2.1063   -1.9994 C   0  0  0  0  0  0  0  0  0  0  0  0
    0.2555    1.6595   -3.0406 C   0  0  0  0  0  0  0  0  0  0  0  0
    0.3894    0.2292   -0.6070 C   0  0  0  0  0  0  0  0  0  0  0  0
   -0.4198   -0.2481   -1.6558 C   0  0  0  0  0  0  0  0  0  0  0  0
   -0.4625    0.4881   -2.8519 C   0  0  0  0  0  0  0  0  0  0  0  0
   -1.3196   -0.2101   -3.6574 N   0  0  0  0  0  0  0  0  0  0  0  0
   -1.8290   -1.3125   -3.1029 N   0  0  0  0  0  0  0  0  0  0  0  0
   -1.2800   -1.3469   -1.8636 C   0  0  0  0  0  0  0  0  0  0  0  0
   -1.6047   -2.4560   -0.9138 C   0  0  0  0  0  0  0  0  0  0  0  0
   -2.4938   -1.8847    0.1611 C   0  0  0  0  0  0  0  0  0  0  0  0
   -3.7858   -1.4363   -0.1030 C   0  0  0  0  0  0  0  0  0  0  0  0
   -4.6032   -0.9110    0.9078 C   0  0  0  0  0  0  0  0  0  0  0  0
   -5.9787   -0.4305    0.5798 C   0  0  0  0  0  0  0  0  0  0  0  0
   -4.0979   -0.8403    2.2176 C   0  0  0  0  0  0  0  0  0  0  0  0
   -2.8188   -1.2824    2.4934 C   0  0  0  0  0  0  0  0  0  0  0  0
   -2.0151   -1.8000    1.4905 C   0  0  0  0  0  0  0  0  0  0  0  0
    3.0846    0.1687    0.7608 H   0  0  0  0  0  0  0  0  0  0  0  0
    3.0403    1.3402    2.0832 H   0  0  0  0  0  0  0  0  0  0  0  0
    1.6189    3.0058   -2.0838 H   0  0  0  0  0  0  0  0  0  0  0  0
    0.1761    2.1664   -3.9736 H   0  0  0  0  0  0  0  0  0  0  0  0
    0.3989   -0.3453    0.2733 H   0  0  0  0  0  0  0  0  0  0  0  0
   -1.5303    0.1278   -4.6216 H   0  0  0  0  0  0  0  0  0  0  0  0
   -1.9986   -3.3135   -1.4163 H   0  0  0  0  0  0  0  0  0  0  0  0
   -0.6517   -2.7321   -0.4345 H   0  0  0  0  0  0  0  0  0  0  0  0
   -4.1711   -1.4908   -1.0964 H   0  0  0  0  0  0  0  0  0  0  0  0
   -6.3328    0.2835    1.3377 H   0  0  0  0  0  0  0  0  0  0  0  0
   -6.0268    0.0034   -0.4390 H   0  0  0  0  0  0  0  0  0  0  0  0
   -6.6722   -1.3164    0.6396 H   0  0  0  0  0  0  0  0  0  0  0  0
   -4.7233   -0.4342    3.0125 H   0  0  0  0  0  0  0  0  0  0  0  0
   -2.4452   -1.2236    3.4966 H   0  0  0  0  0  0  0  0  0  0  0  0
   -1.0154   -2.1556    1.6563 H   0  0  0  0  0  0  0  0  0  0  0  0
  1  2  2  0
  2  3  1  0
  2  4  1  0
  4  5  2  0
  5  6  1  0
  4  7  1  0
  7  8  2  0
  8  9  1  0
  9 10  1  0
 10 11  1  0
 11 12  2  0
 12 13  1  0
 13 14  1  0
 14 15  2  0
 15 16  1  0
 16 17  1  0
 16 18  2  0
 18 19  1  0
 19 20  2  0
  9  6  2  0
 12  8  1  0
 20 14  1  0
  3 21  1  0
  3 22  1  0
  5 23  1  0
  6 24  1  0
  7 25  1  0
 10 26  1  0
 13 27  1  0
 13 28  1  0
 15 29  1  0
 17 30  1  0
 17 31  1  0
 17 32  1  0
 18 33  1  0
 19 34  1  0
 20 35  1  0
M  END
$$$$
ref
     RDKit          3D

 47 50  0  0  0  0  0  0  0  0999 V2000
    1.6537    3.3335   -2.1571 O   0  0  0  0  0  0  0  0  0  0  0  0
    1.0173    2.1330   -1.9655 C   0  0  0  0  0  0  0  0  0  0  0  0
    0.2463    1.6705   -3.0329 C   0  0  0  0  0  0  0  0  0  0  0  0
   -0.4587    0.4800   -2.8324 C   0  0  0  0  0  0  0  0  0  0  0  0
   -0.4264   -0.2351   -1.6405 C   0  0  0  0  0  0  0  0  0  0  0  0
    0.3651    0.2440   -0.5788 C   0  0  0  0  0  0  0  0  0  0  0  0
    1.1180    1.4139   -0.7670 C   0  0  0  0  0  0  0  0  0  0  0  0
    1.9676    1.9456    0.3227 C   0  0  0  0  0  0  0  0  0  0  0  0
    2.8239    1.1005    1.0080 N   0  0  0  0  0  0  0  0  0  0  0  0
    3.3249   -0.1903    0.5483 C   0  0  0  0  0  0  0  0  0  0  0  0
    4.2979   -0.6288    1.6296 C   0  0  0  0  0  0  0  0  0  0  0  0
    4.8840    0.6896    2.1182 C   0  0  1  0  0  0  0  0  0  0  0  0
    3.6841    1.6371    2.0538 C   0  0  0  0  0  0  0  0  0  0  0  0
    5.4070    0.5393    3.4262 O   0  0  0  0  0  0  0  0  0  0  0  0
    1.9118    3.1575    0.5361 O   0  0  0  0  0  0  0  0  0  0  0  0
   -1.2941   -1.3458   -1.8569 C   0  0  0  0  0  0  0  0  0  0  0  0
   -1.6291   -2.4626   -0.9200 C   0  0  0  0  0  0  0  0  0  0  0  0
   -2.5045   -1.8861    0.1687 C   0  0  0  0  0  0  0  0  0  0  0  0
   -3.8053   -1.4360   -0.1153 C   0  0  0  0  0  0  0  0  0  0  0  0
   -4.6261   -0.9115    0.8923 C   0  0  0  0  0  0  0  0  0  0  0  0
   -5.9993   -0.4127    0.5537 C   0  0  0  0  0  0  0  0  0  0  0  0
   -4.1342   -0.8329    2.1987 C   0  0  0  0  0  0  0  0  0  0  0  0
   -2.8501   -1.2879    2.4970 C   0  0  0  0  0  0  0  0  0  0  0  0
   -2.0418   -1.8165    1.4906 C   0  0  0  0  0  0  0  0  0  0  0  0
   -1.8027   -1.3384   -3.1002 N   0  0  0  0  0  0  0  0  0  0  0  0
   -1.3016   -0.2210   -3.6506 N   0  0  0  0  0  0  0  0  0  0  0  0
    1.8732    3.6930   -1.2685 H   0  0  0  0  0  0  0  0  0  0  0  0
    0.1846    2.2290   -3.9608 H   0  0  0  0  0  0  0  0  0  0  0  0
    0.3707   -0.2719    0.3754 H   0  0  0  0  0  0  0  0  0  0  0  0
    2.5237   -0.9179    0.4144 H   0  0  0  0  0  0  0  0  0  0  0  0
    3.8321   -0.0357   -0.4106 H   0  0  0  0  0  0  0  0  0  0  0  0
    3.7687   -1.1369    2.4457 H   0  0  0  0  0  0  0  0  0  0  0  0
    5.0608   -1.3194    1.2576 H   0  0  0  0  0  0  0  0  0  0  0  0
    5.6812    1.0232    1.4436 H   0  0  0  0  0  0  0  0  0  0  0  0
    3.1179    1.6473    2.9918 H   0  0  0  0  0  0  0  0  0  0  0  0
    3.9962    2.6629    1.8324 H   0  0  0  0  0  0  0  0  0  0  0  0
    5.7189    1.4128    3.7211 H   0  0  0  0  0  0  0  0  0  0  0  0
   -2.1616   -3.2749   -1.4286 H   0  0  0  0  0  0  0  0  0  0  0  0
   -0.7088   -2.8902   -0.5056 H   0  0  0  0  0  0  0  0  0  0  0  0
   -4.1787   -1.4896   -1.1380 H   0  0  0  0  0  0  0  0  0  0  0  0
   -6.5863   -0.2129    1.4563 H   0  0  0  0  0  0  0  0  0  0  0  0
   -5.9304    0.5147   -0.0242 H   0  0  0  0  0  0  0  0  0  0  0  0
   -6.5421   -1.1615   -0.0323 H   0  0  0  0  0  0  0  0  0  0  0  0
   -4.7491   -0.4191    2.9945 H   0  0  0  0  0  0  0  0  0  0  0  0
   -2.4795   -1.2300    3.5173 H   0  0  0  0  0  0  0  0  0  0  0  0
   -1.0467   -2.1715    1.7477 H   0  0  0  0  0  0  0  0  0  0  0  0
   -1.5726    0.0100   -4.5996 H   0  0  0  0  0  0  0  0  0  0  0  0
  1  2  1  0
  2  3  2  0
  3  4  1  0
  4  5  2  0
  5  6  1  0
  6  7  2  0
  7  8  1  0
  8  9  1  0
  9 10  1  0
 10 11  1  0
 11 12  1  0
 12 13  1  0
 12 14  1  0
  8 15  2  0
  5 16  1  0
 16 17  1  0
 17 18  1  0
 18 19  2  0
 19 20  1  0
 20 21  1  0
 20 22  2  0
 22 23  1  0
 23 24  2  0
 16 25  2  0
 25 26  1  0
  7  2  1  0
 26  4  1  0
 13  9  1  0
 24 18  1  0
  1 27  1  0
  3 28  1  0
  6 29  1  0
 10 30  1  0
 10 31  1  0
 11 32  1  0
 11 33  1  0
 12 34  1  6
 13 35  1  0
 13 36  1  0
 14 37  1  0
 17 38  1  0
 17 39  1  0
 19 40  1  0
 21 41  1  0
 21 42  1  0
 21 43  1  0
 22 44  1  0
 23 45  1  0
 24 46  1  0
 26 47  1  0
M  END
$$$$
