P3B
     RDKit          3D

 35 37  0  0  0  0  0  0  0  0999 V2000
   -4.5993    1.7016    0.4438 O   0  0  0  0  0  0  0  0  0  0  0  0
   -5.1304    0.6674    0.9122 C   0  0  0  0  0  0  0  0  0  0  0  0
   -4.8584   -0.6219    0.3415 C   0  0  0  0  0  0  0  0  0  0  0  0
   -5.4860   -1.8020    0.7546 C   0  0  0  0  0  0  0  0  0  0  0  0
   -5.2014   -3.0434    0.1873 C   0  0  0  0  0  0  0  0  0  0  0  0
   -3.9028   -0.7110   -0.6907 C   0  0  0  0  0  0  0  0  0  0  0  0
   -3.5899   -1.9527   -1.2879 C   0  0  0  0  0  0  0  0  0  0  0  0
   -4.2517   -3.0874   -0.8289 C   0  0  0  0  0  0  0  0  0  0  0  0
   -3.7463   -4.1129   -1.5835 N   0  0  0  0  0  0  0  0  0  0  0  0
   -2.8273   -3.7405   -2.4780 N   0  0  0  0  0  0  0  0  0  0  0  0
   -2.7227   -2.4012   -2.3023 C   0  0  0  0  0  0  0  0  0  0  0  0
   -1.7730   -1.6089   -3.1352 C   0  0  0  0  0  0  0  0  0  0  0  0
   -0.5845   -1.2773   -2.2851 C   0  0  0  0  0  0  0  0  0  0  0  0
    0.3339   -2.2795   -1.9156 C   0  0  0  0  0  0  0  0  0  0  0  0
    1.4379   -1.9668   -1.1363 C   0  0  0  0  0  0  0  0  0  0  0  0
    2.3794   -3.0366   -0.7627 C   0  0  0  0  0  0  0  0  0  0  0  0
    1.6747   -0.6640   -0.6966 C   0  0  0  0  0  0  0  0  0  0  0  0
    0.7688    0.3268   -1.0612 C   0  0  0  0  0  0  0  0  0  0  0  0
   -0.3415    0.0375   -1.8390 C   0  0  0  0  0  0  0  0  0  0  0  0
   -5.9929    0.8461    2.0122 N   0  0  0  0  0  0  0  0  0  0  0  0
   -6.2134   -1.7159    1.5448 H   0  0  0  0  0  0  0  0  0  0  0  0
   -5.6787   -3.9464    0.4995 H   0  0  0  0  0  0  0  0  0  0  0  0
   -3.3587    0.0970   -1.0943 H   0  0  0  0  0  0  0  0  0  0  0  0
   -4.0901   -5.1054   -1.4319 H   0  0  0  0  0  0  0  0  0  0  0  0
   -2.2879   -0.6448   -3.3305 H   0  0  0  0  0  0  0  0  0  0  0  0
   -1.5435   -2.0991   -4.0658 H   0  0  0  0  0  0  0  0  0  0  0  0
    0.1726   -3.2936   -2.2430 H   0  0  0  0  0  0  0  0  0  0  0  0
    3.3810   -2.9042   -1.2205 H   0  0  0  0  0  0  0  0  0  0  0  0
    2.0146   -4.0335   -1.0837 H   0  0  0  0  0  0  0  0  0  0  0  0
    2.5201   -3.0618    0.3251 H   0  0  0  0  0  0  0  0  0  0  0  0
    2.5290   -0.4375   -0.0967 H   0  0  0  0  0  0  0  0  0  0  0  0
    0.9142    1.3365   -0.7449 H   0  0  0  0  0  0  0  0  0  0  0  0
   -1.0471    0.7874   -2.1273 H   0  0  0  0  0  0  0  0  0  0  0  0
   -6.8789    1.3516    1.8891 H   0  0  0  0  0  0  0  0  0  0  0  0
   -5.7351    0.4709    2.9364 H   0  0  0  0  0  0  0  0  0  0  0  0
  1  2  2  0
  2  3  1  0
  3  4  2  0
  4  5  1  0
  3  6  1  0
  6  7  2  0
  7  8  1  0
  8  9  1  0
  9 10  1  0
 10 11  2  0
 11 12  1  0
 12 13  1  0
 13 14  2  0
 14 15  1  0
 15 16  1  0
 15 17  2  0
 17 18  1  0
 18 19  2  0
  2 20  1  0
  8  5  2  0
 11  7  1  0
 19 13  1  0
  4 21  1  0
  5 22  1  0
  6 23  1  0
  9 24  1  0
 12 25  1  0
 12 26  1  0
 14 27  1  0
 16 28  1  0
 16 29  1  0
 16 30  1  0
 17 31  1  0
 18 32  1  0
 19 33  1  0
 20 34  1  0
 20 35  1  0
M  END
$$$$
3I0
     RDKit          3D

 39 42  0  0  0  0  0  0  0  0999 V2000
   -6.6172    0.0772    2.7132 O   0  0  0  0  0  0  0  0  0  0  0  0
   -5.9615    0.8648    2.0528 C   0  0  0  0  0  0  0  0  0  0  0  0
   -5.9233    2.3410    2.3660 C   0  0  0  0  0  0  0  0  0  0  0  0
   -5.4419    2.9598    1.0739 C   0  0  0  0  0  0  0  0  0  0  0  0
   -4.5866    1.8816    0.4526 C   0  0  0  0  0  0  0  0  0  0  0  0
   -5.1462    0.6379    0.9361 N   0  0  0  0  0  0  0  0  0  0  0  0
   -4.8626   -0.6233    0.3306 C   0  0  0  0  0  0  0  0  0  0  0  0
   -5.4918   -1.8020    0.7373 C   0  0  0  0  0  0  0  0  0  0  0  0
   -5.2071   -3.0490    0.1703 C   0  0  0  0  0  0  0  0  0  0  0  0
   -4.2515   -3.0874   -0.8422 C   0  0  0  0  0  0  0  0  0  0  0  0
   -3.7480   -4.1134   -1.5875 N   0  0  0  0  0  0  0  0  0  0  0  0
   -2.8236   -3.7485   -2.4797 N   0  0  0  0  0  0  0  0  0  0  0  0
   -2.7139   -2.4098   -2.3102 C   0  0  0  0  0  0  0  0  0  0  0  0
   -1.7641   -1.6303   -3.1434 C   0  0  0  0  0  0  0  0  0  0  0  0
   -0.5757   -1.2898   -2.2888 C   0  0  0  0  0  0  0  0  0  0  0  0
    0.3349   -2.2843   -1.8982 C   0  0  0  0  0  0  0  0  0  0  0  0
    1.4411   -1.9634   -1.1075 C   0  0  0  0  0  0  0  0  0  0  0  0
    1.6660   -0.6527   -0.6896 C   0  0  0  0  0  0  0  0  0  0  0  0
    0.7667    0.3373   -1.0748 C   0  0  0  0  0  0  0  0  0  0  0  0
   -0.3422    0.0279   -1.8649 C   0  0  0  0  0  0  0  0  0  0  0  0
   -3.5876   -1.9540   -1.2967 C   0  0  0  0  0  0  0  0  0  0  0  0
   -3.9040   -0.7111   -0.6973 C   0  0  0  0  0  0  0  0  0  0  0  0
   -5.1422    2.4504    3.1580 H   0  0  0  0  0  0  0  0  0  0  0  0
   -6.9159    2.7171    2.6699 H   0  0  0  0  0  0  0  0  0  0  0  0
   -6.2596    3.2920    0.4184 H   0  0  0  0  0  0  0  0  0  0  0  0
   -4.7838    3.8318    1.3073 H   0  0  0  0  0  0  0  0  0  0  0  0
   -4.5211    1.9341   -0.6359 H   0  0  0  0  0  0  0  0  0  0  0  0
   -3.5724    1.9676    0.9477 H   0  0  0  0  0  0  0  0  0  0  0  0
   -6.2211   -1.7969    1.4976 H   0  0  0  0  0  0  0  0  0  0  0  0
   -5.6953   -3.9553    0.4891 H   0  0  0  0  0  0  0  0  0  0  0  0
   -4.0907   -5.0842   -1.4281 H   0  0  0  0  0  0  0  0  0  0  0  0
   -1.5341   -2.1206   -4.0682 H   0  0  0  0  0  0  0  0  0  0  0  0
   -2.2561   -0.6691   -3.3840 H   0  0  0  0  0  0  0  0  0  0  0  0
    0.1692   -3.2953   -2.2139 H   0  0  0  0  0  0  0  0  0  0  0  0
    2.1431   -2.7083   -0.8021 H   0  0  0  0  0  0  0  0  0  0  0  0
    2.5091   -0.3824   -0.0782 H   0  0  0  0  0  0  0  0  0  0  0  0
    0.8753    1.3598   -0.7931 H   0  0  0  0  0  0  0  0  0  0  0  0
   -1.0604    0.7723   -2.1816 H   0  0  0  0  0  0  0  0  0  0  0  0
   -3.3598    0.0920   -1.0954 H   0  0  0  0  0  0  0  0  0  0  0  0
  1  2  2  0
  2  3  1  0
  3  4  1  0
  4  5  1  0
  5  6  1  0
  6  7  1  0
  7  8  2  0
  8  9  1  0
  9 10  2  0
 10 11  1  0
 11 12  1  0
 12 13  2  0
 13 14  1  0
 14 15  1  0
 15 16  2  0
 16 17  1  0
 17 18  2  0
 18 19  1  0
 19 20  2  0
 13 21  1  0
 21 22  2  0
  6  2  1  0
 22  7  1  0
 21 10  1  0
 20 15  1  0
  3 23  1  0
  3 24  1  0
  4 25  1  0
  4 26  1  0
  5 27  1  0
  5 28  1  0
  8 29  1  0
  9 30  1  0
 11 31  1  0
 14 32  1  0
 14 33  1  0
 16 34  1  0
 17 35  1  0
 18 36  1  0
 19 37  1  0
 20 38  1  0
 22 39  1  0
M  END
$$$$
3I1
     RDKit          3D

 55 58  0  0  0  0  0  0  0  0999 V2000
    2.3521   -3.0895   -0.8227 C   0  0  0  0  0  0  0  0  0  0  0  0
    1.4458   -1.9629   -1.1306 C   0  0  0  0  0  0  0  0  0  0  0  0
    0.3403   -2.2681   -1.9272 C   0  0  0  0  0  0  0  0  0  0  0  0
   -0.5814   -1.2618   -2.2922 C   0  0  0  0  0  0  0  0  0  0  0  0
   -1.7705   -1.6051   -3.1431 C   0  0  0  0  0  0  0  0  0  0  0  0
   -2.7170   -2.3943   -2.3064 C   0  0  0  0  0  0  0  0  0  0  0  0
   -2.8256   -3.7352   -2.4762 N   0  0  0  0  0  0  0  0  0  0  0  0
   -3.7447   -4.1039   -1.5830 N   0  0  0  0  0  0  0  0  0  0  0  0
   -4.2523   -3.0759   -0.8288 C   0  0  0  0  0  0  0  0  0  0  0  0
   -5.2003   -3.0347    0.1756 C   0  0  0  0  0  0  0  0  0  0  0  0
   -5.4927   -1.7800    0.7447 C   0  0  0  0  0  0  0  0  0  0  0  0
   -4.8583   -0.6165    0.3216 C   0  0  0  0  0  0  0  0  0  0  0  0
   -5.1481    0.6705    0.9016 C   0  0  0  0  0  0  0  0  0  0  0  0
   -6.0070    0.7805    2.0297 N   0  0  0  0  0  0  0  0  0  0  0  0
   -4.6770    1.7542    0.4656 O   0  0  0  0  0  0  0  0  0  0  0  0
   -3.9030   -0.6914   -0.6977 C   0  0  0  0  0  0  0  0  0  0  0  0
   -3.5866   -1.9450   -1.2925 C   0  0  0  0  0  0  0  0  0  0  0  0
   -0.3484    0.0384   -1.8331 C   0  0  0  0  0  0  0  0  0  0  0  0
    0.7631    0.3327   -1.0339 C   0  0  0  0  0  0  0  0  0  0  0  0
    1.6815   -0.6860   -0.6716 C   0  0  0  0  0  0  0  0  0  0  0  0
    2.8208   -0.3684    0.1727 C   0  0  0  0  0  0  0  0  0  0  0  0
    3.4904    0.8485    0.1774 C   0  0  0  0  0  0  0  0  0  0  0  0
    4.4829    0.7458    1.1051 N   0  0  0  0  0  0  0  0  0  0  0  0
    5.4490    1.7288    1.5076 C   0  0  0  0  0  0  0  0  0  0  0  0
    6.7935    1.7313    0.7709 C   0  0  0  0  0  0  0  0  0  0  0  0
    6.6487    1.9724   -0.7183 C   0  0  0  0  0  0  0  0  0  0  0  0
    7.5837    0.4305    1.0255 C   0  0  0  0  0  0  0  0  0  0  0  0
    7.5785    2.8141    1.3089 O   0  0  0  0  0  0  0  0  0  0  0  0
    4.5085   -0.4723    1.7120 N   0  0  0  0  0  0  0  0  0  0  0  0
    3.5010   -1.1174    1.1333 C   0  0  0  0  0  0  0  0  0  0  0  0
    3.4354   -2.8151   -0.8674 H   0  0  0  0  0  0  0  0  0  0  0  0
    2.0523   -3.6844    0.0525 H   0  0  0  0  0  0  0  0  0  0  0  0
    2.3127   -3.8797   -1.6502 H   0  0  0  0  0  0  0  0  0  0  0  0
    0.1681   -3.2551   -2.2739 H   0  0  0  0  0  0  0  0  0  0  0  0
   -2.2689   -0.6400   -3.3609 H   0  0  0  0  0  0  0  0  0  0  0  0
   -1.5461   -2.0882   -4.0714 H   0  0  0  0  0  0  0  0  0  0  0  0
   -4.0881   -5.0837   -1.4273 H   0  0  0  0  0  0  0  0  0  0  0  0
   -5.6935   -3.9088    0.5118 H   0  0  0  0  0  0  0  0  0  0  0  0
   -6.2258   -1.7579    1.5178 H   0  0  0  0  0  0  0  0  0  0  0  0
   -7.0158    1.0157    1.9231 H   0  0  0  0  0  0  0  0  0  0  0  0
   -5.6003    0.6199    2.9667 H   0  0  0  0  0  0  0  0  0  0  0  0
   -3.3536    0.1086   -1.1078 H   0  0  0  0  0  0  0  0  0  0  0  0
   -1.0215    0.8210   -2.0906 H   0  0  0  0  0  0  0  0  0  0  0  0
    0.9615    1.3188   -0.6701 H   0  0  0  0  0  0  0  0  0  0  0  0
    3.3328    1.7455   -0.3959 H   0  0  0  0  0  0  0  0  0  0  0  0
    5.0674    2.7615    1.3777 H   0  0  0  0  0  0  0  0  0  0  0  0
    5.7078    1.6431    2.5783 H   0  0  0  0  0  0  0  0  0  0  0  0
    6.5184    1.0425   -1.2862 H   0  0  0  0  0  0  0  0  0  0  0  0
    5.7880    2.6637   -0.8373 H   0  0  0  0  0  0  0  0  0  0  0  0
    7.5620    2.5187   -1.0576 H   0  0  0  0  0  0  0  0  0  0  0  0
    8.6136    0.6753    1.2794 H   0  0  0  0  0  0  0  0  0  0  0  0
    7.5960   -0.1647    0.0935 H   0  0  0  0  0  0  0  0  0  0  0  0
    7.1427   -0.1382    1.8712 H   0  0  0  0  0  0  0  0  0  0  0  0
    8.2074    2.4257    1.9602 H   0  0  0  0  0  0  0  0  0  0  0  0
    3.2288   -2.1244    1.3867 H   0  0  0  0  0  0  0  0  0  0  0  0
  1  2  1  0
  2  3  2  0
  3  4  1  0
  4  5  1  0
  5  6  1  0
  6  7  2  0
  7  8  1  0
  8  9  1  0
  9 10  2  0
 10 11  1  0
 11 12  2  0
 12 13  1  0
 13 14  1  0
 13 15  2  0
 12 16  1  0
 16 17  2  0
  4 18  2  0
 18 19  1  0
 19 20  2  0
 20 21  1  0
 21 22  2  0
 22 23  1  0
 23 24  1  0
 24 25  1  0
 25 26  1  0
 25 27  1  0
 25 28  1  0
 23 29  1  0
 29 30  2  0
 20  2  1  0
 30 21  1  0
 17  6  1  0
 17  9  1  0
  1 31  1  0
  1 32  1  0
  1 33  1  0
  3 34  1  0
  5 35  1  0
  5 36  1  0
  8 37  1  0
 10 38  1  0
 11 39  1  0
 14 40  1  0
 14 41  1  0
 16 42  1  0
 18 43  1  0
 19 44  1  0
 22 45  1  0
 24 46  1  0
 24 47  1  0
 26 48  1  0
 26 49  1  0
 26 50  1  0
 27 51  1  0
 27 52  1  0
 27 53  1  0
 28 54  1  0
 30 55  1  0
M  END
$$$$
P3A
     RDKit          3D

 59 63  0  0  0  0  0  0  0  0999 V2000
   -6.5931    0.0625    2.7328 O   0  0  0  0  0  0  0  0  0  0  0  0
   -5.9707    0.8626    2.0500 C   0  0  0  0  0  0  0  0  0  0  0  0
   -5.9087    2.3370    2.3781 C   0  0  0  0  0  0  0  0  0  0  0  0
   -5.4347    2.9594    1.0814 C   0  0  0  0  0  0  0  0  0  0  0  0
   -4.5680    1.8781    0.4723 C   0  0  0  0  0  0  0  0  0  0  0  0
   -5.1737    0.6426    0.9136 N   0  0  0  0  0  0  0  0  0  0  0  0
   -4.8630   -0.6182    0.3256 C   0  0  0  0  0  0  0  0  0  0  0  0
   -5.4942   -1.7994    0.7399 C   0  0  0  0  0  0  0  0  0  0  0  0
   -5.2026   -3.0515    0.1753 C   0  0  0  0  0  0  0  0  0  0  0  0
   -3.9026   -0.7049   -0.7022 C   0  0  0  0  0  0  0  0  0  0  0  0
   -3.5909   -1.9502   -1.2892 C   0  0  0  0  0  0  0  0  0  0  0  0
   -4.2462   -3.0850   -0.8368 C   0  0  0  0  0  0  0  0  0  0  0  0
   -3.7417   -4.1163   -1.5790 N   0  0  0  0  0  0  0  0  0  0  0  0
   -2.8252   -3.7456   -2.4885 N   0  0  0  0  0  0  0  0  0  0  0  0
   -2.7087   -2.4194   -2.3066 C   0  0  0  0  0  0  0  0  0  0  0  0
   -1.7669   -1.6275   -3.1552 C   0  0  0  0  0  0  0  0  0  0  0  0
   -0.5733   -1.2900   -2.2908 C   0  0  0  0  0  0  0  0  0  0  0  0
    0.3342   -2.2849   -1.8997 C   0  0  0  0  0  0  0  0  0  0  0  0
    1.4388   -1.9726   -1.1010 C   0  0  0  0  0  0  0  0  0  0  0  0
    1.6679   -0.6568   -0.6807 C   0  0  0  0  0  0  0  0  0  0  0  0
    2.8123   -0.3487    0.1606 C   0  0  0  0  0  0  0  0  0  0  0  0
    3.4614    0.8683    0.2158 C   0  0  0  0  0  0  0  0  0  0  0  0
    4.4841    0.7220    1.1103 N   0  0  0  0  0  0  0  0  0  0  0  0
    5.4188    1.7418    1.5319 C   0  0  0  0  0  0  0  0  0  0  0  0
    6.7786    1.7363    0.8068 C   0  0  0  0  0  0  0  0  0  0  0  0
    6.6293    2.0055   -0.6932 C   0  0  0  0  0  0  0  0  0  0  0  0
    7.5586    2.8278    1.3338 O   0  0  0  0  0  0  0  0  0  0  0  0
    7.5744    0.4471    1.0341 C   0  0  0  0  0  0  0  0  0  0  0  0
    4.5343   -0.5019    1.6666 N   0  0  0  0  0  0  0  0  0  0  0  0
    3.5262   -1.1534    1.0801 C   0  0  0  0  0  0  0  0  0  0  0  0
    0.7674    0.3401   -1.0801 C   0  0  0  0  0  0  0  0  0  0  0  0
   -0.3383    0.0286   -1.8789 C   0  0  0  0  0  0  0  0  0  0  0  0
   -5.1920    2.4904    3.1918 H   0  0  0  0  0  0  0  0  0  0  0  0
   -6.8939    2.7154    2.6653 H   0  0  0  0  0  0  0  0  0  0  0  0
   -4.9019    3.9034    1.2272 H   0  0  0  0  0  0  0  0  0  0  0  0
   -6.2983    3.1540    0.4336 H   0  0  0  0  0  0  0  0  0  0  0  0
   -4.5668    1.9657   -0.6185 H   0  0  0  0  0  0  0  0  0  0  0  0
   -3.5433    1.9248    0.8591 H   0  0  0  0  0  0  0  0  0  0  0  0
   -6.2498   -1.7886    1.5202 H   0  0  0  0  0  0  0  0  0  0  0  0
   -5.7088   -3.9468    0.5210 H   0  0  0  0  0  0  0  0  0  0  0  0
   -3.3695    0.1671   -1.0581 H   0  0  0  0  0  0  0  0  0  0  0  0
   -3.9877   -5.0975   -1.5179 H   0  0  0  0  0  0  0  0  0  0  0  0
   -2.2601   -0.7199   -3.5220 H   0  0  0  0  0  0  0  0  0  0  0  0
   -1.4390   -2.1930   -4.0356 H   0  0  0  0  0  0  0  0  0  0  0  0
    0.1778   -3.3172   -2.2106 H   0  0  0  0  0  0  0  0  0  0  0  0
    2.1179   -2.7748   -0.8223 H   0  0  0  0  0  0  0  0  0  0  0  0
    3.2997    1.8027   -0.3037 H   0  0  0  0  0  0  0  0  0  0  0  0
    4.9268    2.7155    1.4038 H   0  0  0  0  0  0  0  0  0  0  0  0
    5.5624    1.6290    2.6151 H   0  0  0  0  0  0  0  0  0  0  0  0
    7.6110    2.1350   -1.1641 H   0  0  0  0  0  0  0  0  0  0  0  0
    6.0793    2.9375   -0.8688 H   0  0  0  0  0  0  0  0  0  0  0  0
    6.1101    1.1913   -1.2084 H   0  0  0  0  0  0  0  0  0  0  0  0
    7.8280    2.5950    2.2419 H   0  0  0  0  0  0  0  0  0  0  0  0
    7.1045   -0.4180    0.5556 H   0  0  0  0  0  0  0  0  0  0  0  0
    7.6822    0.2381    2.1051 H   0  0  0  0  0  0  0  0  0  0  0  0
    8.5907    0.5450    0.6344 H   0  0  0  0  0  0  0  0  0  0  0  0
    3.3461   -2.1854    1.3537 H   0  0  0  0  0  0  0  0  0  0  0  0
    0.9059    1.3709   -0.7646 H   0  0  0  0  0  0  0  0  0  0  0  0
   -1.0155    0.8270   -2.1734 H   0  0  0  0  0  0  0  0  0  0  0  0
  1  2  2  0
  2  3  1  0
  3  4  1  0
  4  5  1  0
  2  6  1  0
  6  7  1  0
  7  8  2  0
  8  9  1  0
  7 10  1  0
 10 11  2  0
 11 12  1  0
 12 13  1  0
 13 14  1  0
 14 15  2  0
 15 16  1  0
 16 17  1  0
 17 18  2  0
 18 19  1  0
 19 20  2  0
 20 21  1  0
 21 22  2  0
 22 23  1  0
 23 24  1  0
 24 25  1  0
 25 26  1  0
 25 27  1  0
 25 28  1  0
 23 29  1  0
 29 30  2  0
 20 31  1  0
 31 32  2  0
  6  5  1  0
 12  9  2  0
 15 11  1  0
 32 17  1  0
 30 21  1  0
  3 33  1  0
  3 34  1  0
  4 35  1  0
  4 36  1  0
  5 37  1  0
  5 38  1  0
  8 39  1  0
  9 40  1  0
 10 41  1  0
 13 42  1  0
 16 43  1  0
 16 44  1  0
 18 45  1  0
 19 46  1  0
 22 47  1  0
 24 48  1  0
 24 49  1  0
 26 50  1  0
 26 51  1  0
 26 52  1  0
 27 53  1  0
 28 54  1  0
 28 55  1  0
 28 56  1  0
 30 57  1  0
 31 58  1  0
 32 59  1  0
M  END
$$$$
